*SPEF "IEEE 1481-1998"
*DESIGN "p4_adder"
*DATE "Mon Jun 12 16:43:42 2023"
*VENDOR "Cadence Design Systems, Inc."
*PROGRAM "Innovus"
*VERSION "20.11-s130_1"
*DESIGN_FLOW "COUPLING C" "PIN_CAP NONE" "NAME_SCOPE LOCAL"
*DIVIDER /
*DELIMITER :
*BUS_DELIMITER []
*T_UNIT 1 NS
*C_UNIT 1 PF
*R_UNIT 1 OHM
*L_UNIT 1 HENRY

// MMMC spef file for corner 'standard'

*NAME_MAP

*1 A[31]
*2 A[30]
*3 A[29]
*4 A[28]
*5 A[27]
*6 A[26]
*7 A[25]
*8 A[24]
*9 A[23]
*10 A[22]
*11 A[21]
*12 A[20]
*13 A[19]
*14 A[18]
*15 A[17]
*16 A[16]
*17 A[15]
*18 A[14]
*19 A[13]
*20 A[12]
*21 A[11]
*22 A[10]
*23 A[9]
*24 A[8]
*25 A[7]
*26 A[6]
*27 A[5]
*28 A[4]
*29 A[3]
*30 A[2]
*31 A[1]
*32 A[0]
*33 B[31]
*34 B[30]
*35 B[29]
*36 B[28]
*37 B[27]
*38 B[26]
*39 B[25]
*40 B[24]
*41 B[23]
*42 B[22]
*43 B[21]
*44 B[20]
*45 B[19]
*46 B[18]
*47 B[17]
*48 B[16]
*49 B[15]
*50 B[14]
*51 B[13]
*52 B[12]
*53 B[11]
*54 B[10]
*55 B[9]
*56 B[8]
*57 B[7]
*58 B[6]
*59 B[5]
*60 B[4]
*61 B[3]
*62 B[2]
*63 B[1]
*64 B[0]
*65 Cin
*66 Cout
*67 bxor[31]
*68 bxor[30]
*69 bxor[29]
*70 bxor[28]
*71 bxor[27]
*72 bxor[26]
*73 bxor[25]
*74 bxor[24]
*75 bxor[23]
*76 bxor[22]
*77 bxor[21]
*78 bxor[20]
*79 bxor[19]
*80 bxor[18]
*81 bxor[17]
*82 bxor[16]
*83 bxor[15]
*84 bxor[14]
*85 bxor[13]
*86 bxor[12]
*87 bxor[11]
*88 bxor[10]
*89 bxor[9]
*90 bxor[8]
*91 bxor[7]
*92 bxor[6]
*93 bxor[5]
*94 bxor[4]
*95 bxor[3]
*96 bxor[2]
*97 bxor[1]
*98 bxor[0]
*99 carries[7]
*100 carries[6]
*101 carries[5]
*102 carries[4]
*103 carries[3]
*104 carries[2]
*105 carries[1]
*106 carrygen/Sig2\[4\]\[31\]
*107 carrygen/Sig2\[4\]\[27\]
*108 carrygen/Sig2\[4\]\[23\]
*109 carrygen/Sig2\[3\]\[31\]
*110 carrygen/Sig2\[3\]\[27\]
*111 carrygen/Sig2\[3\]\[19\]
*112 carrygen/Sig2\[3\]\[15\]
*113 carrygen/Sig2\[3\]\[11\]
*114 carrygen/Sig2\[2\]\[31\]
*115 carrygen/Sig2\[2\]\[23\]
*116 carrygen/Sig2\[2\]\[15\]
*117 carrygen/Sig2\[2\]\[7\]
*118 carrygen/Sig2\[1\]\[31\]
*119 carrygen/Sig2\[1\]\[29\]
*120 carrygen/Sig2\[1\]\[27\]
*121 carrygen/Sig2\[1\]\[25\]
*122 carrygen/Sig2\[1\]\[23\]
*123 carrygen/Sig2\[1\]\[21\]
*124 carrygen/Sig2\[1\]\[19\]
*125 carrygen/Sig2\[1\]\[17\]
*126 carrygen/Sig2\[1\]\[15\]
*127 carrygen/Sig2\[1\]\[13\]
*128 carrygen/Sig2\[1\]\[11\]
*129 carrygen/Sig2\[1\]\[9\]
*130 carrygen/Sig2\[1\]\[7\]
*131 carrygen/Sig2\[1\]\[5\]
*132 carrygen/Sig2\[1\]\[3\]
*133 carrygen/Sig2\[1\]\[1\]
*134 carrygen/Sig2\[0\]\[31\]
*135 carrygen/Sig2\[0\]\[30\]
*136 carrygen/Sig2\[0\]\[29\]
*137 carrygen/Sig2\[0\]\[28\]
*138 carrygen/Sig2\[0\]\[27\]
*139 carrygen/Sig2\[0\]\[26\]
*140 carrygen/Sig2\[0\]\[25\]
*141 carrygen/Sig2\[0\]\[24\]
*142 carrygen/Sig2\[0\]\[23\]
*143 carrygen/Sig2\[0\]\[22\]
*144 carrygen/Sig2\[0\]\[21\]
*145 carrygen/Sig2\[0\]\[20\]
*146 carrygen/Sig2\[0\]\[19\]
*147 carrygen/Sig2\[0\]\[18\]
*148 carrygen/Sig2\[0\]\[17\]
*149 carrygen/Sig2\[0\]\[16\]
*150 carrygen/Sig2\[0\]\[15\]
*151 carrygen/Sig2\[0\]\[14\]
*152 carrygen/Sig2\[0\]\[13\]
*153 carrygen/Sig2\[0\]\[12\]
*154 carrygen/Sig2\[0\]\[11\]
*155 carrygen/Sig2\[0\]\[10\]
*156 carrygen/Sig2\[0\]\[9\]
*157 carrygen/Sig2\[0\]\[8\]
*158 carrygen/Sig2\[0\]\[7\]
*159 carrygen/Sig2\[0\]\[6\]
*160 carrygen/Sig2\[0\]\[5\]
*161 carrygen/Sig2\[0\]\[4\]
*162 carrygen/Sig2\[0\]\[3\]
*163 carrygen/Sig2\[0\]\[2\]
*164 carrygen/Sig2\[0\]\[1\]
*165 carrygen/Sig2\[0\]\[0\]
*166 carrygen/Sig1\[4\]\[31\]
*167 carrygen/Sig1\[4\]\[27\]
*168 carrygen/Sig1\[4\]\[23\]
*169 carrygen/Sig1\[3\]\[31\]
*170 carrygen/Sig1\[3\]\[27\]
*171 carrygen/Sig1\[3\]\[19\]
*172 carrygen/Sig1\[3\]\[15\]
*173 carrygen/Sig1\[3\]\[11\]
*174 carrygen/Sig1\[2\]\[31\]
*175 carrygen/Sig1\[2\]\[23\]
*176 carrygen/Sig1\[2\]\[15\]
*177 carrygen/Sig1\[2\]\[7\]
*178 carrygen/Sig1\[1\]\[31\]
*179 carrygen/Sig1\[1\]\[29\]
*180 carrygen/Sig1\[1\]\[27\]
*181 carrygen/Sig1\[1\]\[25\]
*182 carrygen/Sig1\[1\]\[23\]
*183 carrygen/Sig1\[1\]\[21\]
*184 carrygen/Sig1\[1\]\[19\]
*185 carrygen/Sig1\[1\]\[17\]
*186 carrygen/Sig1\[1\]\[15\]
*187 carrygen/Sig1\[1\]\[13\]
*188 carrygen/Sig1\[1\]\[11\]
*189 carrygen/Sig1\[1\]\[9\]
*190 carrygen/Sig1\[1\]\[7\]
*191 carrygen/Sig1\[1\]\[5\]
*192 carrygen/Sig1\[1\]\[3\]
*193 carrygen/Sig1\[0\]\[31\]
*194 carrygen/Sig1\[0\]\[30\]
*195 carrygen/Sig1\[0\]\[29\]
*196 carrygen/Sig1\[0\]\[28\]
*197 carrygen/Sig1\[0\]\[27\]
*198 carrygen/Sig1\[0\]\[26\]
*199 carrygen/Sig1\[0\]\[25\]
*200 carrygen/Sig1\[0\]\[24\]
*201 carrygen/Sig1\[0\]\[23\]
*202 carrygen/Sig1\[0\]\[22\]
*203 carrygen/Sig1\[0\]\[21\]
*204 carrygen/Sig1\[0\]\[20\]
*205 carrygen/Sig1\[0\]\[19\]
*206 carrygen/Sig1\[0\]\[18\]
*207 carrygen/Sig1\[0\]\[17\]
*208 carrygen/Sig1\[0\]\[16\]
*209 carrygen/Sig1\[0\]\[15\]
*210 carrygen/Sig1\[0\]\[14\]
*211 carrygen/Sig1\[0\]\[13\]
*212 carrygen/Sig1\[0\]\[12\]
*213 carrygen/Sig1\[0\]\[11\]
*214 carrygen/Sig1\[0\]\[10\]
*215 carrygen/Sig1\[0\]\[9\]
*216 carrygen/Sig1\[0\]\[8\]
*217 carrygen/Sig1\[0\]\[7\]
*218 carrygen/Sig1\[0\]\[6\]
*219 carrygen/Sig1\[0\]\[5\]
*220 carrygen/Sig1\[0\]\[4\]
*221 carrygen/Sig1\[0\]\[3\]
*222 carrygen/Sig1\[0\]\[2\]
*223 carrygen/Sig1\[0\]\[1\]
*224 carrygen/SYNOPSYS_UNCONNECTED__0
*225 carrygen/m_PgNetwork/n1
*226 carrygen/m_PgNetwork/n2
*227 carrygen/m_PgNetwork/n3
*228 carrygen/m_blockG_1_1/n2
*229 carrygen/m_blockPG_1_3/n2
*230 carrygen/m_blockPG_1_5/n1
*231 carrygen/m_blockPG_1_7/n1
*232 carrygen/m_blockPG_1_9/n1
*233 carrygen/m_blockPG_1_11/n1
*234 carrygen/m_blockPG_1_13/n1
*235 carrygen/m_blockPG_1_15/n1
*236 carrygen/m_blockPG_1_17/n1
*237 carrygen/m_blockPG_1_19/n1
*238 carrygen/m_blockPG_1_21/n1
*239 carrygen/m_blockPG_1_23/n1
*240 carrygen/m_blockPG_1_25/n1
*241 carrygen/m_blockPG_1_27/n1
*242 carrygen/m_blockPG_1_29/n1
*243 carrygen/m_blockPG_1_31/n1
*244 carrygen/m_blockG_2_3/n1
*245 carrygen/m_blockPG_2_7/n1
*246 carrygen/m_blockPG_2_11/n1
*247 carrygen/m_blockPG_2_15/n1
*248 carrygen/m_blockPG_2_19/n1
*249 carrygen/m_blockPG_2_23/n1
*250 carrygen/m_blockPG_2_27/n1
*251 carrygen/m_blockPG_2_31/n1
*252 carrygen/m1_blockG_3_7/n1
*253 carrygen/m1_blockPG_3_15/n1
*254 carrygen/m1_blockPG_3_23/n1
*255 carrygen/m1_blockPG_3_31/n1
*256 carrygen/m1_blockG_4_11/n1
*257 carrygen/m1_blockG_4_15/n1
*258 carrygen/m1_blockPG_4_27/n1
*259 carrygen/m1_blockPG_4_31/n1
*260 carrygen/m1_blockG_5_19/n1
*261 carrygen/m1_blockG_5_23/n1
*262 carrygen/m1_blockG_5_27/n1
*263 carrygen/m1_blockG_5_31/n1
*264 S[31]
*265 S[30]
*266 S[29]
*267 S[28]
*268 S[27]
*269 S[26]
*270 S[25]
*271 S[24]
*272 S[23]
*273 S[22]
*274 S[21]
*275 S[20]
*276 S[19]
*277 S[18]
*278 S[17]
*279 S[16]
*280 S[15]
*281 S[14]
*282 S[13]
*283 S[12]
*284 S[11]
*285 S[10]
*286 S[9]
*287 S[8]
*288 S[7]
*289 S[6]
*290 S[5]
*291 S[4]
*292 S[3]
*293 S[2]
*294 S[1]
*295 S[0]
*296 carrygen/m_PgNetwork/U37
*297 carrygen/m_PgNetwork/U38
*298 carrygen/m_PgNetwork/U39
*299 carrygen/m_PgNetwork/U40
*300 carrygen/m_PgNetwork/U41
*301 carrygen/m_PgNetwork/U42
*302 carrygen/m_PgNetwork/U43
*303 carrygen/m_PgNetwork/U44
*304 carrygen/m_PgNetwork/U45
*305 carrygen/m_PgNetwork/U46
*306 carrygen/m_PgNetwork/U47
*307 carrygen/m_PgNetwork/U48
*308 carrygen/m_PgNetwork/U49
*309 carrygen/m_PgNetwork/U50
*310 carrygen/m_PgNetwork/U51
*311 carrygen/m_PgNetwork/U52
*312 carrygen/m_PgNetwork/U53
*313 carrygen/m_PgNetwork/U54
*314 carrygen/m_PgNetwork/U55
*315 carrygen/m_PgNetwork/U56
*316 carrygen/m_PgNetwork/U57
*317 carrygen/m_PgNetwork/U58
*318 carrygen/m_PgNetwork/U59
*319 carrygen/m_PgNetwork/U60
*320 carrygen/m_PgNetwork/U61
*321 carrygen/m_PgNetwork/U62
*322 carrygen/m_PgNetwork/U63
*323 carrygen/m_PgNetwork/U64
*324 carrygen/m_PgNetwork/U65
*325 carrygen/m_PgNetwork/U66
*326 carrygen/m_PgNetwork/U67
*327 carrygen/m_PgNetwork/U1
*328 carrygen/m_PgNetwork/U2
*329 carrygen/m_PgNetwork/U3
*330 carrygen/m_PgNetwork/U4
*331 carrygen/m_PgNetwork/U5
*332 carrygen/m_PgNetwork/U6
*333 carrygen/m_PgNetwork/U7
*334 carrygen/m_PgNetwork/U8
*335 carrygen/m_PgNetwork/U9
*336 carrygen/m_PgNetwork/U10
*337 carrygen/m_PgNetwork/U11
*338 carrygen/m_PgNetwork/U12
*339 carrygen/m_PgNetwork/U13
*340 carrygen/m_PgNetwork/U14
*341 carrygen/m_PgNetwork/U15
*342 carrygen/m_PgNetwork/U16
*343 carrygen/m_PgNetwork/U17
*344 carrygen/m_PgNetwork/U18
*345 carrygen/m_PgNetwork/U19
*346 carrygen/m_PgNetwork/U20
*347 carrygen/m_PgNetwork/U21
*348 carrygen/m_PgNetwork/U22
*349 carrygen/m_PgNetwork/U23
*350 carrygen/m_PgNetwork/U24
*351 carrygen/m_PgNetwork/U25
*352 carrygen/m_PgNetwork/U26
*353 carrygen/m_PgNetwork/U27
*354 carrygen/m_PgNetwork/U28
*355 carrygen/m_PgNetwork/U29
*356 carrygen/m_PgNetwork/U30
*357 carrygen/m_PgNetwork/U31
*358 carrygen/m_PgNetwork/U32
*359 carrygen/m_PgNetwork/U33
*360 carrygen/m_PgNetwork/U34
*361 carrygen/m_PgNetwork/U35
*362 carrygen/m_PgNetwork/U36
*363 carrygen/m_blockG_1_1/U1
*364 carrygen/m_blockG_1_1/U2
*365 carrygen/m_blockPG_1_3/U1
*366 carrygen/m_blockPG_1_3/U2
*367 carrygen/m_blockPG_1_3/U3
*368 carrygen/m_blockPG_1_5/U1
*369 carrygen/m_blockPG_1_5/U2
*370 carrygen/m_blockPG_1_5/U3
*371 carrygen/m_blockPG_1_7/U1
*372 carrygen/m_blockPG_1_7/U2
*373 carrygen/m_blockPG_1_7/U3
*374 carrygen/m_blockPG_1_9/U1
*375 carrygen/m_blockPG_1_9/U2
*376 carrygen/m_blockPG_1_9/U3
*377 carrygen/m_blockPG_1_11/U1
*378 carrygen/m_blockPG_1_11/U2
*379 carrygen/m_blockPG_1_11/U3
*380 carrygen/m_blockPG_1_13/U1
*381 carrygen/m_blockPG_1_13/U2
*382 carrygen/m_blockPG_1_13/U3
*383 carrygen/m_blockPG_1_15/U1
*384 carrygen/m_blockPG_1_15/U2
*385 carrygen/m_blockPG_1_15/U3
*386 carrygen/m_blockPG_1_17/U1
*387 carrygen/m_blockPG_1_17/U2
*388 carrygen/m_blockPG_1_17/U3
*389 carrygen/m_blockPG_1_19/U1
*390 carrygen/m_blockPG_1_19/U2
*391 carrygen/m_blockPG_1_19/U3
*392 carrygen/m_blockPG_1_21/U1
*393 carrygen/m_blockPG_1_21/U2
*394 carrygen/m_blockPG_1_21/U3
*395 carrygen/m_blockPG_1_23/U1
*396 carrygen/m_blockPG_1_23/U2
*397 carrygen/m_blockPG_1_23/U3
*398 carrygen/m_blockPG_1_25/U1
*399 carrygen/m_blockPG_1_25/U2
*400 carrygen/m_blockPG_1_25/U3
*401 carrygen/m_blockPG_1_27/U1
*402 carrygen/m_blockPG_1_27/U2
*403 carrygen/m_blockPG_1_27/U3
*404 carrygen/m_blockPG_1_29/U1
*405 carrygen/m_blockPG_1_29/U2
*406 carrygen/m_blockPG_1_29/U3
*407 carrygen/m_blockPG_1_31/U1
*408 carrygen/m_blockPG_1_31/U2
*409 carrygen/m_blockPG_1_31/U3
*410 carrygen/m_blockG_2_3/U1
*411 carrygen/m_blockG_2_3/U2
*412 carrygen/m_blockPG_2_7/U1
*413 carrygen/m_blockPG_2_7/U2
*414 carrygen/m_blockPG_2_7/U3
*415 carrygen/m_blockPG_2_11/U1
*416 carrygen/m_blockPG_2_11/U2
*417 carrygen/m_blockPG_2_11/U3
*418 carrygen/m_blockPG_2_15/U1
*419 carrygen/m_blockPG_2_15/U2
*420 carrygen/m_blockPG_2_15/U3
*421 carrygen/m_blockPG_2_19/U1
*422 carrygen/m_blockPG_2_19/U2
*423 carrygen/m_blockPG_2_19/U3
*424 carrygen/m_blockPG_2_23/U1
*425 carrygen/m_blockPG_2_23/U2
*426 carrygen/m_blockPG_2_23/U3
*427 carrygen/m_blockPG_2_27/U1
*428 carrygen/m_blockPG_2_27/U2
*429 carrygen/m_blockPG_2_27/U3
*430 carrygen/m_blockPG_2_31/U1
*431 carrygen/m_blockPG_2_31/U2
*432 carrygen/m_blockPG_2_31/U3
*433 carrygen/m1_blockG_3_7/U1
*434 carrygen/m1_blockG_3_7/U2
*435 carrygen/m1_blockPG_3_15/U1
*436 carrygen/m1_blockPG_3_15/U2
*437 carrygen/m1_blockPG_3_15/U3
*438 carrygen/m1_blockPG_3_23/U1
*439 carrygen/m1_blockPG_3_23/U2
*440 carrygen/m1_blockPG_3_23/U3
*441 carrygen/m1_blockPG_3_31/U1
*442 carrygen/m1_blockPG_3_31/U2
*443 carrygen/m1_blockPG_3_31/U3
*444 carrygen/m1_blockG_4_11/U1
*445 carrygen/m1_blockG_4_11/U2
*446 carrygen/m1_blockG_4_15/U1
*447 carrygen/m1_blockG_4_15/U2
*448 carrygen/m1_blockPG_4_27/U1
*449 carrygen/m1_blockPG_4_27/U2
*450 carrygen/m1_blockPG_4_27/U3
*451 carrygen/m1_blockPG_4_31/U1
*452 carrygen/m1_blockPG_4_31/U2
*453 carrygen/m1_blockPG_4_31/U3
*454 carrygen/m1_blockG_5_19/U1
*455 carrygen/m1_blockG_5_19/U2
*456 carrygen/m1_blockG_5_23/U1
*457 carrygen/m1_blockG_5_23/U2
*458 carrygen/m1_blockG_5_27/U1
*459 carrygen/m1_blockG_5_27/U2
*460 carrygen/m1_blockG_5_31/U1
*461 carrygen/m1_blockG_5_31/U2
*462 U1
*463 U2
*464 U3
*465 U4
*466 U5
*467 U6
*468 U7
*469 U8
*470 U9
*471 U10
*472 U11
*473 U12
*474 U13
*475 U14
*476 U15
*477 U16
*478 U17
*479 U18
*480 U19
*481 U20
*482 U21
*483 U22
*484 U23
*485 U24
*486 U25
*487 U26
*488 U27
*489 U28
*490 U29
*491 U30
*492 U31
*493 U32


*PORTS

*1 I *C 30.685 28.28
*2 I *C 29.735 28.28
*3 I *C 28.785 28.28
*4 I *C 27.835 28.28
*5 I *C 26.885 28.28
*6 I *C 25.745 28.28
*7 I *C 24.795 28.28
*8 I *C 23.845 28.28
*9 I *C 22.895 28.28
*10 I *C 21.755 28.28
*11 I *C 20.805 28.28
*12 I *C 19.855 28.28
*13 I *C 18.905 28.28
*14 I *C 17.955 28.28
*15 I *C 16.815 28.28
*16 I *C 15.865 28.28
*17 I *C 14.915 28.28
*18 I *C 13.965 28.28
*19 I *C 12.825 28.28
*20 I *C 11.875 28.28
*21 I *C 10.925 28.28
*22 I *C 9.975 28.28
*23 I *C 9.025 28.28
*24 I *C 7.885 28.28
*25 I *C 6.935 28.28
*26 I *C 5.985 28.28
*27 I *C 5.035 28.28
*28 I *C 3.895 28.28
*29 I *C 2.945 28.28
*30 I *C 1.995 28.28
*31 I *C 1.045 28.28
*32 I *C 0.095 28.28
*33 I *C 0 28.07
*34 I *C 0 27.23
*35 I *C 0 26.39
*36 I *C 0 25.41
*37 I *C 0 24.57
*38 I *C 0 23.59
*39 I *C 0 22.75
*40 I *C 0 21.77
*41 I *C 0 20.93
*42 I *C 0 19.95
*43 I *C 0 19.11
*44 I *C 0 18.13
*45 I *C 0 17.29
*46 I *C 0 16.31
*47 I *C 0 15.47
*48 I *C 0 14.49
*49 I *C 0 13.65
*50 I *C 0 12.67
*51 I *C 0 11.83
*52 I *C 0 10.85
*53 I *C 0 10.01
*54 I *C 0 9.03
*55 I *C 0 8.19
*56 I *C 0 7.21
*57 I *C 0 6.37
*58 I *C 0 5.39
*59 I *C 0 4.55
*60 I *C 0 3.57
*61 I *C 0 2.73
*62 I *C 0 1.75
*63 I *C 0 0.91
*64 I *C 0 0.07
*65 I *C 15.675 0
*264 O *C 30.97 0.21
*265 O *C 30.97 1.05
*266 O *C 30.97 1.89
*267 O *C 30.97 2.87
*268 O *C 30.97 3.71
*269 O *C 30.97 4.69
*270 O *C 30.97 5.53
*271 O *C 30.97 6.51
*272 O *C 30.97 7.35
*273 O *C 30.97 8.33
*274 O *C 30.97 9.17
*275 O *C 30.97 10.15
*276 O *C 30.97 10.99
*277 O *C 30.97 11.97
*278 O *C 30.97 12.81
*279 O *C 30.97 13.79
*280 O *C 30.97 14.63
*281 O *C 30.97 15.61
*282 O *C 30.97 16.45
*283 O *C 30.97 17.43
*284 O *C 30.97 18.27
*285 O *C 30.97 19.25
*286 O *C 30.97 20.09
*287 O *C 30.97 21.07
*288 O *C 30.97 21.91
*289 O *C 30.97 22.89
*290 O *C 30.97 23.73
*291 O *C 30.97 24.71
*292 O *C 30.97 25.55
*293 O *C 30.97 26.53
*294 O *C 30.97 27.37
*295 O *C 30.97 28.21
*66 O *C 15.865 0


*D_NET *1 0.00241393

*CONN
*P *1 I *C 30.685 28.28 *L 0
*I *342:A2 I *C 21.03 5.915 *L 0.000975 *D AND2_X1
*I *303:B I *C 21.205 7.315 *L 0.00241 *D XOR2_X1

*CAP
1 *1 1.00399e-05
2 *342:A2 1.66173e-05
3 *303:B 1.66173e-05
4 *1:3 1.86253e-05
5 *1:4 8.40093e-05
6 *1:5 0.000104903
7 *1:6 5.21096e-05
8 *1:7 2.01883e-05
9 *1:8 2.01774e-05
10 *1:9 1.98627e-05
11 *1:10 0.000113087
12 *1:11 0.000191658
13 *1:12 0.000113087
14 *1:13 0.000711311172
15 *1:14 0.000191973
16 *1:15 1.8354e-05
17 *1:16 0.000711311172

*RES
1 *1:15 *1 0.949615
2 *1:16 *1:15 4.99988
3 *1:13 *1:16 74
4 *1:14 *1:13 4.99988
5 *1:11 *1:14 20.3575
6 *1:11 *1:12 0.500214
7 *1:10 *1:12 10.1782
8 *1:9 *1:10 0.500214
9 *1:8 *1:9 1.35724
10 *1:3 *1:8 4.99988
11 *1:4 *303:B 4.99988
12 *1:4 *1:3 1.00043
13 *1:7 *342:A2 4.99988
14 *1:5 *1:4 5.50009
15 *1:6 *1:7 1.00043
16 *1:6 *1:5 2.71448
*END

*D_NET *2 0.00225643

*CONN
*P *2 I *C 29.735 28.28 *L 0
*I *341:A2 I *C 19.51 8.715 *L 0.000975 *D AND2_X1
*I *304:B I *C 20.065 8.365 *L 0.00241 *D XOR2_X1

*CAP
1 *2 1.00331e-05
2 *341:A2 1.66173e-05
3 *304:B 1.66173e-05
4 *2:3 0.00010758
5 *2:4 2.91492e-05
6 *2:5 0.000622651172
7 *2:6 0.000622651172
8 *2:7 2.05033e-05
9 *2:8 5.24173e-05
10 *2:9 5.41085e-05
11 *2:10 0.000130335
12 *2:11 0.000152454
13 *2:12 0.000212529
14 *2:13 0.00019042
15 *2:14 1.8356e-05

*RES
1 *2:14 *2 0.949745
2 *2:5 *2:14 4.99969
3 *2:6 *2:5 64.5
4 *2:13 *2:6 4.99969
5 *2:12 *2:13 19.6789
6 *2:11 *2:12 3.39251
7 *2:10 *2:11 10.8576
8 *2:4 *304:B 4.99969
9 *2:9 *2:10 4.99969
10 *2:4 *2:3 1.99988
11 *2:3 *2:9 3.99976
12 *2:8 *2:3 2.7144
13 *2:7 *2:8 0.999939
14 *341:A2 *2:7 4.99969
*END

*D_NET *3 0.00278143

*CONN
*P *3 I *C 28.785 28.28 *L 0
*I *361:A2 I *C 17.16 5.915 *L 0.000975 *D AND2_X1
*I *306:B I *C 16.075 5.565 *L 0.00241 *D XOR2_X1

*CAP
1 *3 3.41217e-05
2 *361:A2 1.66203e-05
3 *306:B 1.66203e-05
4 *3:3 0.000119177
5 *3:4 0.00011916
6 *3:5 3.81905e-05
7 *3:6 3.81905e-05
8 *3:7 1.74765e-05
9 *3:8 2.47705e-05
10 *3:9 1.48914e-05
11 *3:10 3.06098e-05
12 *3:11 2.31122e-05
13 *3:12 1.22605e-05
14 *3:13 9.25401e-05
15 *3:14 9.22201e-05
16 *3:15 2.99074e-05
17 *3:16 2.99074e-05
18 *3:17 5.23213e-05
19 *3:18 5.23213e-05
20 *3:19 3.79495e-05
21 *3:20 3.94374e-05
22 *3:21 4.5231e-05
23 *3:22 0.000181722
24 *3:23 3.248e-05
25 *3:24 0.000184
26 *3:25 8.19586e-05
27 *3:26 9.18626e-05
28 *3:27 2.758e-05
29 *3:28 8.8438e-05
30 *3:29 2.52775e-05
31 *3:30 9.12309e-05
32 *3:31 9.12309e-05
33 *3:32 0.000272371055
34 *3:33 0.000262471
35 *3:34 0.000114252
36 *3:18 *4:3 8.85857e-06
37 *3:17 *4:4 8.86253e-06
38 *3:5 *4:5 1.21969e-06
39 *3:6 *4:6 1.21969e-06
40 *3:16 *4:3 2.55817e-06
41 *3:15 *4:4 2.56213e-06
42 *3:33 *4:7 6.2501e-05
43 *3:32 *4:8 6.24971e-05
44 *3:31 *4:7 1.08425e-05
45 *3:30 *4:8 1.08386e-05
46 *3:3 *4:7 1.25216e-05
47 *3:4 *4:8 1.25176e-05
48 *3:29 *4:7 1.80973e-06
49 *3:27 *4:8 1.80973e-06
50 *3:26 *4:7 7.70224e-06
51 *3:25 *4:8 7.69828e-06
52 *3:24 *4:7 1.42125e-05
53 *3:22 *4:8 1.42086e-05
54 *3:34 *4:9 7.53988e-06
55 *3:28 *4:10 7.53988859e-06

*RES
1 *3:34 *3 3.22984
2 *3:28 *3:34 16.5028
3 *3:29 *3:28 4.99986
4 *3:27 *3:29 1.50009
5 *3:27 *3:31 0.67836
6 *3:30 *3:31 9.00011
7 *3:30 *3:33 0.67836
8 *3:32 *3:33 29
9 *3:26 *3:32 1.35716
10 *3:25 *3:26 7.50002
11 *3:25 *3:3 0.67836
12 *3:4 *3:3 11.4998
13 *3:24 *3:4 0.67836
14 *3:22 *3:24 18.9998
15 *3:23 *3:22 4.99986
16 *3:20 *3:23 2.71432
17 *3:20 *3:21 1.00006
18 *3:19 *3:21 4.07149
19 *3:18 *3:19 0.500031
20 *3:17 *3:18 5.42865
21 *3:16 *3:17 0.500031
22 *3:15 *3:16 3.39268
23 *3:15 *3:5 0.500031
24 *3:6 *3:5 4.07149
25 *3:14 *3:6 0.500031
26 *3:13 *3:14 10.8573
27 *3:12 *3:13 4.99986
28 *3:11 *361:A2 4.99986
29 *3:11 *3:12 0.500031
30 *3:10 *3:11 1.00006
31 *3:8 *3:10 1.35716
32 *3:8 *3:9 0.500031
33 *3:7 *3:9 0.67836
34 *306:B *3:7 4.99986
*END

*D_NET *4 0.00271448

*CONN
*P *4 I *C 27.835 28.28 *L 0
*I *362:A2 I *C 16.78 6.965 *L 0.000975 *D AND2_X1
*I *307:B I *C 15.695 7.315 *L 0.00241 *D XOR2_X1

*CAP
1 *4 1.03149e-05
2 *362:A2 1.66179e-05
3 *307:B 1.66179e-05
4 *4:3 6.83324e-05
5 *4:4 6.83324e-05
6 *4:5 6.63749e-05
7 *4:6 7.36566e-05
8 *4:7 0.00070489
9 *4:8 0.00070489
10 *4:9 4.04316e-05
11 *4:10 3.84202e-05
12 *4:11 6.37827e-05
13 *4:12 5.65009e-05
14 *4:13 0.00011184
15 *4:14 0.000118799
16 *4:15 5.73184e-05
17 *4:16 4.28516e-05
18 *4:17 1.51981e-05
19 *4:18 1.51981e-05
20 *4:19 4.68636e-05
21 *4:20 2.17485e-05
22 *4:21 4.68636e-05
23 *4:22 2.09095e-05
24 *4:23 2.81913e-05
25 *4:3 *3:18 8.85857e-06
26 *4:4 *3:17 8.86253e-06
27 *4:5 *3:5 1.21969e-06
28 *4:6 *3:6 1.21969e-06
29 *4:3 *3:16 2.55817e-06
30 *4:4 *3:15 2.56213e-06
31 *4:7 *3:33 6.2501e-05
32 *4:8 *3:32 6.24971e-05
33 *4:7 *3:31 1.08425e-05
34 *4:8 *3:30 1.08386e-05
35 *4:7 *3:3 1.25216e-05
36 *4:8 *3:4 1.25176e-05
37 *4:7 *3:29 1.80973e-06
38 *4:8 *3:27 1.80973e-06
39 *4:7 *3:26 7.70224e-06
40 *4:8 *3:25 7.69828e-06
41 *4:7 *3:24 1.42125e-05
42 *4:8 *3:22 1.42086e-05
43 *4:9 *3:34 7.53988e-06
44 *4:10 *3:28 7.53988859e-06

*RES
1 *4:9 *4 0.950432
2 *4:10 *4:9 7.21983
3 *4:7 *4:10 4.99985
4 *4:8 *4:7 75.5
5 *4:13 *4:8 4.99985
6 *4:14 *4:13 10.1783
7 *4:3 *4:14 0.999969
8 *4:4 *4:3 6.10696
9 *4:4 *4:11 0.999969
10 *4:12 *4:11 5.42841
11 *4:5 *4:12 0.499985
12 *4:6 *4:5 5.42841
13 *4:6 *4:23 0.999969
14 *4:22 *4:23 2.03565
15 *4:21 *4:22 0.499985
16 *4:19 *4:21 4.0713
17 *4:18 *362:A2 4.99985
18 *4:19 *4:20 0.499985
19 *4:15 *4:18 4.99985
20 *4:15 *4:20 1.3571
21 *4:16 *4:15 2.03565
22 *4:17 *4:16 4.99985
23 *307:B *4:17 4.99985
*END

*D_NET *5 0.00163745

*CONN
*P *5 I *C 26.885 28.28 *L 0
*I *350:A2 I *C 19.06 17.115 *L 0.000975 *D AND2_X1
*I *308:B I *C 18.505 16.765 *L 0.00241 *D XOR2_X1

*CAP
1 *5 3.95519e-05
2 *350:A2 1.66215e-05
3 *308:B 8.03026e-06
4 *5:3 3.21902e-05
5 *5:4 3.91984e-05
6 *5:5 7.86005e-05
7 *5:6 7.86005e-05
8 *5:7 6.60287e-05
9 *5:8 6.83302e-05
10 *5:9 2.68495e-05
11 *5:10 2.70186e-05
12 *5:11 4.92305e-05
13 *5:12 3.89103e-05
14 *5:13 0.000251800469
15 *5:14 0.000251800469
16 *5:15 5.801e-05
17 *5:16 3.90102e-05
18 *5:17 3.4461e-05
19 *5:18 1.23605e-05
20 *5:19 1.56187e-05
21 *5:20 1.58991e-05
22 *5:21 7.85313e-05
23 *5:22 7.14386e-05
24 *5:23 8.54896e-05
25 *5:24 7.14386e-05
26 *5:25 4.47005e-05
27 *5:26 3.77384e-05

*RES
1 *5:15 *5 5.15718
2 *5:11 *5:15 1.71003
3 *5:12 *5:11 7.21981
4 *5:12 *5:9 0.760193
5 *5:10 *5:9 2.06303
6 *5:13 *5:10 4.99989
7 *5:14 *5:13 26.5
8 *5:26 *5:14 4.99989
9 *5:25 *5:26 2.71445
10 *5:24 *5:25 0.999977
11 *5:22 *5:24 6.10702
12 *5:22 *5:23 0.999977
13 *5:21 *5:23 9.49998
14 *5:7 *5:21 4.99989
15 *5:8 *5:7 4.5001
16 *5:5 *5:8 0.678513
17 *5:6 *5:5 6.50005
18 *5:6 *5:3 0.678513
19 *5:4 *350:A2 4.99989
20 *5:4 *5:3 1.99995
21 *5:16 *5:4 0.999977
22 *5:17 *5:16 2.03554
23 *5:18 *5:17 0.500191
24 *5:20 *5:18 4.99989
25 *5:19 *308:B 0.760193
26 *5:19 *5:20 1.03152
*END

*D_NET *6 0.00173359

*CONN
*P *6 I *C 25.745 28.28 *L 0
*I *349:A2 I *C 17.16 17.115 *L 0.000975 *D AND2_X1
*I *309:B I *C 16.605 16.765 *L 0.00241 *D XOR2_X1

*CAP
1 *6 6.93577e-06
2 *349:A2 1.66191e-05
3 *309:B 8.0329e-06
4 *6:3 2.04018e-05
5 *6:4 3.49412e-05
6 *6:5 4.42382e-05
7 *6:6 0.000140032
8 *6:7 0.000140032
9 *6:8 4.90512e-05
10 *6:9 4.90512e-05
11 *6:10 0.000120417
12 *6:11 0.000113968
13 *6:12 3.96398e-05
14 *6:13 3.96398e-05
15 *6:14 1.67384e-05
16 *6:15 1.93906e-05
17 *6:16 0.000312610469
18 *6:17 0.000312610469
19 *6:18 1.56222e-05
20 *6:19 1.59036e-05
21 *6:20 3.72976e-05
22 *6:21 1.52501e-05
23 *6:10 *29:11 8.35944e-06
24 *6:11 *29:12 8.35944e-06
25 *6:6 *29:13 4.34303e-05
26 *6:7 *29:14 4.34303e-05
27 *6:14 *29:15 8.35944e-06
28 *6:15 *29:16 8.36196e-06
29 *6:12 *29:17 8.56861e-06
30 *6:13 *29:18 8.57113e-06
31 *6:10 *29:19 1.38585e-05
32 *6:11 *29:20 1.38608828e-05

*RES
1 *6:21 *6 1.03144
2 *6:10 *6:21 5.00003
3 *6:11 *6:10 13.6251
4 *6:11 *6:6 0.33941
5 *6:7 *6:6 15.4999
6 *6:12 *6:7 0.33941
7 *6:13 *6:12 4.00003
8 *6:13 *6:8 0.33941
9 *6:9 *6:8 4.4998
10 *6:14 *6:9 0.33941
11 *6:15 *6:14 1.49978
12 *6:16 *6:15 5.00003
13 *6:17 *6:16 29.8571434
14 *6:3 *6:17 5.00003
15 *6:4 *349:A2 5.00003
16 *6:4 *6:3 1.00001
17 *6:5 *6:4 1.49978
18 *6:20 *6:5 2.03555
19 *6:19 *6:20 5.00003
20 *6:18 *309:B 0.759914
21 *6:18 *6:19 1.03144
*END

*D_NET *7 0.00179034

*CONN
*P *7 I *C 24.795 28.28 *L 0
*I *356:A2 I *C 19.7 14.315 *L 0.000975 *D AND2_X1
*I *310:B I *C 20.255 12.915 *L 0.00241 *D XOR2_X1

*CAP
1 *7 3.3159e-05
2 *356:A2 1.66205e-05
3 *310:B 8.02818e-06
4 *7:3 0.000315991973
5 *7:4 0.000315987
6 *7:5 1.85926e-05
7 *7:6 4.06906e-05
8 *7:7 1.59021e-05
9 *7:8 6.532e-05
10 *7:9 0.000104429
11 *7:10 2.69101e-05
12 *7:11 0.000193062
13 *7:12 2.22089e-05
14 *7:13 0.000190762
15 *7:14 1.56224e-05
16 *7:15 0.00012943
17 *7:16 3.79904e-05
18 *7:17 0.000155911
19 *7:18 8.37293e-05

*RES
1 *7:18 *7 4.12593
2 *7:17 *7:18 4.74982
3 *7:15 *7:17 18.5658
4 *7:15 *7:16 2.27993
5 *7:12 *7:16 2.06297
6 *7:13 *7:12 5.00009
7 *7:11 *7:13 16.5001
8 *310:B *7:14 0.759827
9 *7:3 *7:11 0.678352
10 *7:7 *7:14 1.03126
11 *7:4 *7:3 29.5
12 *7:8 *7:7 5.00009
13 *7:4 *7:10 0.678352
14 *7:8 *7:9 5.00009
15 *7:9 *7:10 1.49985
16 *7:6 *7:9 2.03551
17 *7:5 *7:6 1.0002
18 *356:A2 *7:5 5.00009
*END

*D_NET *8 0.00182954

*CONN
*P *8 I *C 23.845 28.28 *L 0
*I *355:A2 I *C 18.56 12.565 *L 0.000975 *D AND2_X1
*I *311:B I *C 19.115 12.915 *L 0.00241 *D XOR2_X1

*CAP
1 *8 1.8458e-05
2 *355:A2 1.66186e-05
3 *311:B 8.0308e-06
4 *8:3 6.0231e-05
5 *8:4 6.0231e-05
6 *8:5 8.3191e-05
7 *8:6 0.000106729
8 *8:7 3.90706e-05
9 *8:8 1.70287e-05
10 *8:9 7.41104e-05
11 *8:10 7.41104e-05
12 *8:11 9.82304e-05
13 *8:12 9.59289e-05
14 *8:13 3.05103e-05
15 *8:14 3.28118e-05
16 *8:15 1.63309e-05
17 *8:16 8.99517e-05
18 *8:17 1.60494e-05
19 *8:18 8.99517e-05
20 *8:19 3.91685e-05
21 *8:20 2.33487e-05
22 *8:21 2.69693e-05
23 *8:22 0.00012194
24 *8:23 0.00012194
25 *8:24 0.000190667
26 *8:25 0.000200571035
27 *8:26 2.30671e-05
28 *8:27 2.19317e-05
29 *8:28 3.23589e-05

*RES
1 *8:28 *8 1.71002
2 *8:27 *8:28 2.06275
3 *8:9 *8:27 0.760094
4 *8:10 *8:9 11.3458
5 *8:10 *8:26 0.760094
6 *8:20 *8:26 2.06275
7 *8:21 *8:20 4.9999
8 *8:19 *8:21 1.50005
9 *8:19 *8:25 1.35704
10 *8:24 *8:25 16.5
11 *8:23 *8:24 0.67852
12 *8:22 *8:23 13.4999
13 *8:11 *8:22 0.67852
14 *8:12 *8:11 9.50004
15 *8:18 *8:12 4.9999
16 *8:16 *8:18 6.78571
17 *8:13 *8:16 4.9999
18 *8:14 *8:13 1.50005
19 *8:3 *8:14 0.67852
20 *311:B *8:17 0.760094
21 *8:4 *8:3 4.9999
22 *8:15 *8:17 1.0315
23 *8:4 *8:5 0.67852
24 *8:6 *8:15 4.9999
25 *8:6 *8:5 5.49992
26 *8:7 *8:6 2.03581
27 *8:8 *8:7 1.50005
28 *355:A2 *8:8 4.9999
*END

*D_NET *9 0.00341457

*CONN
*P *9 I *C 22.895 28.28 *L 0
*I *346:A2 I *C 5.64 6.965 *L 0.000975 *D AND2_X1
*I *312:B I *C 6.195 7.315 *L 0.00241 *D XOR2_X1

*CAP
1 *9 1.03205e-05
2 *346:A2 1.66245e-05
3 *312:B 1.66245e-05
4 *9:3 2.06002e-05
5 *9:4 3.42838e-05
6 *9:5 5.32094e-05
7 *9:6 0.000182448
8 *9:7 0.000182448
9 *9:8 6.66751e-05
10 *9:9 6.63483e-05
11 *9:10 5.65588e-05
12 *9:11 5.45437e-05
13 *9:12 0.000226752
14 *9:13 0.000226752
15 *9:14 4.61565e-05
16 *9:15 4.61565e-05
17 *9:16 1.77546e-05
18 *9:17 1.80814e-05
19 *9:18 0.000883891
20 *9:19 0.000892291406
21 *9:20 5.2515e-05
22 *9:21 2.06002e-05
23 *9:22 2.60601e-05
24 *9:23 8.15568e-06
25 *9:24 1.28394e-05
26 *9:25 8.15568e-06
27 *9:26 1.28394e-05
28 *9:6 *56:4 2.04e-05
29 *9:7 *56:5 2.04e-05
30 *9:12 *56:6 4.22508e-05
31 *9:13 *56:7 4.22508e-05
32 *9:16 *56:6 4.8182e-06
33 *9:17 *56:7 4.82057e-06
34 *9:14 *56:14 9.96014e-06
35 *9:15 *56:13 9.96019795e-06

*RES
1 *9:10 *9 0.950169
2 *9:11 *9:10 6.18841
3 *9:26 *9:11 4.99989
4 *9:24 *9:26 0.499942
5 *9:25 *9:24 4.99989
6 *9:23 *9:25 0.0357765
7 *9:18 *9:23 4.99989
8 *9:19 *9:18 30.4500008
9 *9:22 *9:19 0.420026
10 *9:8 *9:22 4.99989
11 *9:9 *9:8 6.42862
12 *9:9 *9:6 0.499942
13 *9:7 *9:6 17.6429
14 *9:14 *9:7 0.499942
15 *9:15 *9:14 4.74991
16 *9:15 *9:12 0.499942
17 *9:13 *9:12 23.75
18 *9:16 *9:13 0.499942
19 *9:17 *9:16 1.35718
20 *9:3 *9:17 4.99989
21 *9:4 *312:B 4.99989
22 *9:4 *9:3 0.999884
23 *9:21 *346:A2 4.99989
24 *9:5 *9:4 1.99977
25 *9:20 *9:21 0.999884
26 *9:20 *9:5 2.71437
*END

*D_NET *10 0.00337968

*CONN
*P *10 I *C 21.755 28.28 *L 0
*I *345:A2 I *C 7.16 5.915 *L 0.000975 *D AND2_X1
*I *313:B I *C 7.335 7.315 *L 0.00241 *D XOR2_X1

*CAP
1 *10 2.89259e-05
2 *345:A2 1.66158e-05
3 *313:B 1.66158e-05
4 *10:3 1.87645e-05
5 *10:4 7.17776e-05
6 *10:5 7.27781e-05
7 *10:6 0.000224674
8 *10:7 0.000224674
9 *10:8 3.72338e-05
10 *10:9 0.00021457
11 *10:10 0.00021457
12 *10:11 0.000529073
13 *10:12 0.000537470586
14 *10:13 2.97952e-05
15 *10:14 1.76409e-05
16 *10:15 0.000268575
17 *10:16 0.000268575
18 *10:17 0.00015279
19 *10:18 0.000161188
20 *10:19 8.75896e-06
21 *10:20 1.25644e-05
22 *10:9 *29:36 8.64008e-05
23 *10:10 *29:33 8.64008e-05
24 *10:9 *29:37 3.96273e-05
25 *10:10 *29:35 3.96310942e-05

*RES
1 *10:8 *10 4.12556
2 *10:20 *10:8 4.9998
3 *10:19 *10:20 0.124827
4 *10:9 *10:19 4.9998
5 *10:10 *10:9 29.3214283
6 *10:11 *10:10 4.9998
7 *10:12 *10:11 18.27
8 *10:16 *10:12 0.420117
9 *10:15 *10:16 8.81978
10 *10:15 *10:18 0.420117
11 *10:17 *10:18 4.82979
12 *10:6 *10:17 4.9998
13 *10:3 *313:B 4.9998
14 *10:7 *10:6 18.857
15 *10:4 *10:3 1.50016
16 *10:4 *10:7 4.9998
17 *10:14 *345:A2 4.9998
18 *10:5 *10:4 4.9998
19 *10:13 *10:14 0.99996
20 *10:13 *10:5 1.35699
*END

*D_NET *11 0.00292552

*CONN
*P *11 I *C 20.805 28.28 *L 0
*I *354:A2 I *C 10.77 5.915 *L 0.000975 *D AND2_X1
*I *314:B I *C 11.325 5.565 *L 0.00241 *D XOR2_X1

*CAP
1 *11 1.03191e-05
2 *354:A2 1.66191e-05
3 *314:B 1.66191e-05
4 *11:3 0.000329241602
5 *11:4 0.000326589
6 *11:5 2.11104e-05
7 *11:6 2.07889e-05
8 *11:7 1.76741e-05
9 *11:8 1.79906e-05
10 *11:9 0.000240972
11 *11:10 0.000240972
12 *11:11 0.000303389
13 *11:12 0.000306041
14 *11:13 0.000108109
15 *11:14 0.000108109
16 *11:15 9.27463e-05
17 *11:16 9.27463e-05
18 *11:17 3.43434e-05
19 *11:18 3.43434e-05
20 *11:19 4.88575e-05
21 *11:20 1.69406e-05
22 *11:21 5.70012e-05
23 *11:22 2.53004e-05
24 *11:23 2.75812e-05
25 *11:24 1.86286e-05
26 *11:15 *58:15 1.92299e-05
27 *11:16 *58:16 1.92299e-05
28 *11:5 *58:8 6.21981e-06
29 *11:6 *58:9 6.21981e-06
30 *11:7 *58:10 6.68002e-06
31 *11:8 *58:11 6.68002e-06
32 *11:9 *58:8 5.10013e-05
33 *11:10 *58:9 5.09986e-05
34 *11:9 *58:10 7.17055e-06
35 *11:10 *58:11 7.17050166e-06
36 *11:3 *39:19 5.72902e-06
37 *11:4 *39:18 5.73225e-06
38 *11:11 *39:6 2.69801e-05
39 *11:12 *39:7 2.69801e-05
40 *11:3 *39:8 2.36597e-05
41 *11:4 *39:9 2.36597e-05
42 *11:13 *39:8 3.46295e-05
43 *11:14 *39:9 3.46295e-05
44 *11:11 *39:8 7.93075e-06
45 *11:12 *39:9 7.93075e-06
46 *11:11 *39:2 3.4594e-06
47 *11:12 *39:3 3.4594e-06
48 *11:11 *39:4 3.54992e-06
49 *11:12 *39:5 3.54992124e-06

*RES
1 *11:24 *11 0.949768
2 *11:3 *11:24 5.00022
3 *11:4 *11:3 31.0001
4 *11:13 *11:4 0.33934
5 *11:14 *11:13 11.5001
6 *11:14 *11:11 0.33934
7 *11:12 *11:11 31.5
8 *11:17 *11:12 5.00022
9 *11:18 *11:17 1.64287
10 *11:15 *11:18 5.00022
11 *11:16 *11:15 3.36024
12 *11:5 *11:16 5.00022
13 *11:6 *11:5 1.75005
14 *11:9 *11:6 0.499878
15 *11:10 *11:9 27.8216
16 *11:10 *11:7 0.499878
17 *11:8 *11:7 1.35736
18 *11:22 *11:8 5.00022
19 *11:22 *11:23 1.50011
20 *11:20 *354:A2 5.00022
21 *11:21 *314:B 5.00022
22 *11:21 *11:23 0.67868
23 *11:19 *11:20 1.00024
24 *11:19 *11:21 2.71424
*END

*D_NET *12 0.00228531

*CONN
*P *12 I *C 19.855 28.28 *L 0
*I *353:A2 I *C 11.53 6.965 *L 0.000975 *D AND2_X1
*I *315:B I *C 12.085 7.315 *L 0.00241 *D XOR2_X1

*CAP
1 *12 1.03178e-05
2 *353:A2 1.66196e-05
3 *315:B 1.66196e-05
4 *12:3 0.000103507
5 *12:4 0.0001138
6 *12:5 2.169e-05
7 *12:6 7.35218e-05
8 *12:7 7.61784e-05
9 *12:8 0.000267632
10 *12:9 0.000269929941
11 *12:10 7.30399e-05
12 *12:11 7.30399e-05
13 *12:12 8.43503e-05
14 *12:13 7.93994e-05
15 *12:14 0.000117252
16 *12:15 0.000117252
17 *12:16 5.28204e-05
18 *12:17 5.2808e-05
19 *12:18 1.52027e-05
20 *12:19 5.53988e-05
21 *12:20 5.54029e-05
22 *12:21 9.48204e-05
23 *12:22 0.000115159
24 *12:23 0.000101781
25 *12:24 0.000115159
26 *12:25 3.65673e-05
27 *12:26 2.96105e-05
28 *12:27 2.22089e-05