*SPEF "IEEE 1481-1998"
*DESIGN "SUM"
*DATE "Mon Jun 12 23:01:44 2023"
*VENDOR "Cadence Design Systems, Inc."
*PROGRAM "Innovus"
*VERSION "20.11-s130_1"
*DESIGN_FLOW "COUPLING C" "PIN_CAP NONE" "NAME_SCOPE LOCAL"
*DIVIDER /
*DELIMITER :
*BUS_DELIMITER []
*T_UNIT 1 NS
*C_UNIT 1 PF
*R_UNIT 1 OHM
*L_UNIT 1 HENRY

// MMMC spef file for corner 'standard'

*NAME_MAP

*1 FE_PHN268_RST
*2 FE_PHN267_RST
*3 FE_PHN266_RST
*4 FE_PHN265_RST
*5 FE_PHN264_RST
*6 FE_PHN263_RST
*7 FE_PHN262_B_13
*8 FE_PHN261_RST
*9 FE_PHN260_B_0
*10 FE_PHN259_B_1
*11 FE_PHN258_B_12
*12 FE_PHN257_A_127
*13 FE_PHN256_B_8
*14 FE_PHN255_B_10
*15 FE_PHN254_B_11
*16 FE_PHN253_B_14
*17 FE_PHN252_B_15
*18 FE_PHN251_B_2
*19 FE_PHN250_B_9
*20 FE_PHN249_B_16
*21 FE_PHN248_B_7
*22 FE_PHN247_B_17
*23 FE_PHN246_B_75
*24 FE_PHN245_B_76
*25 FE_PHN244_B_77
*26 FE_PHN243_B_3
*27 FE_PHN242_B_5
*28 FE_PHN241_B_6
*29 FE_PHN240_B_78
*30 FE_PHN239_B_93
*31 FE_PHN238_B_4
*32 FE_PHN237_B_18
*33 FE_PHN236_B_21
*34 FE_PHN235_B_69
*35 FE_PHN234_B_71
*36 FE_PHN233_B_72
*37 FE_PHN232_B_74
*38 FE_PHN231_B_79
*39 FE_PHN230_B_99
*40 FE_PHN229_A_0
*41 FE_PHN228_A_125
*42 FE_PHN227_B_83
*43 FE_PHN226_B_88
*44 FE_PHN225_B_91
*45 FE_PHN224_B_94
*46 FE_PHN223_B_100
*47 FE_PHN222_A_124
*48 FE_PHN221_B_20
*49 FE_PHN220_B_22
*50 FE_PHN219_B_24
*51 FE_PHN218_B_73
*52 FE_PHN217_B_81
*53 FE_PHN216_B_82
*54 FE_PHN215_B_84
*55 FE_PHN214_B_90
*56 FE_PHN213_B_92
*57 FE_PHN212_B_101
*58 FE_PHN211_A_1
*59 FE_PHN210_A_122
*60 FE_PHN209_A_126
*61 FE_PHN208_B_19
*62 FE_PHN207_B_23
*63 FE_PHN206_B_80
*64 FE_PHN205_B_85
*65 FE_PHN204_B_89
*66 FE_PHN203_B_95
*67 FE_PHN202_B_97
*68 FE_PHN201_B_102
*69 FE_PHN200_A_4
*70 FE_PHN199_A_9
*71 FE_PHN198_A_11
*72 FE_PHN197_A_108
*73 FE_PHN196_A_120
*74 FE_PHN195_A_123
*75 FE_PHN194_B_25
*76 FE_PHN193_B_26
*77 FE_PHN192_B_87
*78 FE_PHN191_A_2
*79 FE_PHN190_A_3
*80 FE_PHN189_A_10
*81 FE_PHN188_A_52
*82 FE_PHN187_A_76
*83 FE_PHN186_A_121
*84 FE_PHN185_Ci
*85 FE_PHN184_B_86
*86 FE_PHN183_B_98
*87 FE_PHN182_A_6
*88 FE_PHN181_A_12
*89 FE_PHN180_A_53
*90 FE_PHN179_A_54
*91 FE_PHN178_A_55
*92 FE_PHN177_A_74
*93 FE_PHN176_A_107
*94 FE_PHN175_A_119
*95 FE_PHN174_B_67
*96 FE_PHN173_B_68
*97 FE_PHN172_B_70
*98 FE_PHN171_B_103
*99 FE_PHN170_A_5
*100 FE_PHN169_A_51
*101 FE_PHN168_A_58
*102 FE_PHN167_A_72
*103 FE_PHN166_A_75
*104 FE_PHN165_A_77
*105 FE_PHN164_A_110
*106 FE_PHN163_A_8
*107 FE_PHN162_A_13
*108 FE_PHN161_A_14
*109 FE_PHN160_A_31
*110 FE_PHN159_A_45
*111 FE_PHN158_A_49
*112 FE_PHN157_A_50
*113 FE_PHN156_A_56
*114 FE_PHN155_A_64
*115 FE_PHN154_A_65
*116 FE_PHN153_A_69
*117 FE_PHN152_A_71
*118 FE_PHN151_A_78
*119 FE_PHN150_A_95
*120 FE_PHN149_A_109
*121 FE_PHN148_A_112
*122 FE_PHN147_A_118
*123 FE_PHN146_B_31
*124 FE_PHN145_B_30
*125 FE_PHN144_B_66
*126 FE_PHN143_B_96
*127 FE_PHN142_B_104
*128 FE_PHN141_A_48
*129 FE_PHN140_A_66
*130 FE_PHN139_A_79
*131 FE_PHN138_A_96
*132 FE_PHN137_A_106
*133 FE_PHN136_A_24
*134 FE_PHN135_A_32
*135 FE_PHN134_A_57
*136 FE_PHN133_A_59
*137 FE_PHN132_A_60
*138 FE_PHN131_A_61
*139 FE_PHN130_A_68
*140 FE_PHN129_A_73
*141 FE_PHN128_A_80
*142 FE_PHN127_A_81
*143 FE_PHN126_A_94
*144 FE_PHN125_A_97
*145 FE_PHN124_A_105
*146 FE_PHN123_A_111
*147 FE_PHN122_A_115
*148 FE_PHN121_A_116
*149 FE_PHN120_B_27
*150 FE_PHN119_B_63
*151 FE_PHN118_B_65
*152 FE_PHN117_A_7
*153 FE_PHN116_A_15
*154 FE_PHN115_A_16
*155 FE_PHN114_A_23
*156 FE_PHN113_A_29
*157 FE_PHN112_A_30
*158 FE_PHN111_A_44
*159 FE_PHN110_A_47
*160 FE_PHN109_A_70
*161 FE_PHN108_A_90
*162 FE_PHN107_A_91
*163 FE_PHN106_A_104
*164 FE_PHN105_A_113
*165 FE_PHN104_B_28
*166 FE_PHN103_B_29
*167 FE_PHN102_B_62
*168 FE_PHN101_B_64
*169 FE_PHN100_A_17
*170 FE_PHN99_A_21
*171 FE_PHN98_A_25
*172 FE_PHN97_A_34
*173 FE_PHN96_A_38
*174 FE_PHN95_A_46
*175 FE_PHN94_A_67
*176 FE_PHN93_A_82
*177 FE_PHN92_A_83
*178 FE_PHN91_A_89
*179 FE_PHN90_A_92
*180 FE_PHN89_A_93
*181 FE_PHN88_A_98
*182 FE_PHN87_A_114
*183 FE_PHN86_B_32
*184 FE_PHN85_B_39
*185 FE_PHN84_B_56
*186 FE_PHN83_B_61
*187 FE_PHN82_B_114
*188 FE_PHN81_B_127
*189 FE_PHN80_A_27
*190 FE_PHN79_A_28
*191 FE_PHN78_A_33
*192 FE_PHN77_A_62
*193 FE_PHN76_A_63
*194 FE_PHN75_A_84
*195 FE_PHN74_A_88
*196 FE_PHN73_A_99
*197 FE_PHN72_A_103
*198 FE_PHN71_A_117
*199 FE_PHN70_B_33
*200 FE_PHN69_B_37
*201 FE_PHN68_B_38
*202 FE_PHN67_B_40
*203 FE_PHN66_B_41
*204 FE_PHN65_B_55
*205 FE_PHN64_B_57
*206 FE_PHN63_B_105
*207 FE_PHN62_B_106
*208 FE_PHN61_B_112
*209 FE_PHN60_B_113
*210 FE_PHN59_B_126
*211 FE_PHN58_A_18
*212 FE_PHN57_A_20
*213 FE_PHN56_A_22
*214 FE_PHN55_A_26
*215 FE_PHN54_A_35
*216 FE_PHN53_A_41
*217 FE_PHN52_A_42
*218 FE_PHN51_A_43
*219 FE_PHN50_A_100
*220 FE_PHN49_A_101
*221 FE_PHN48_A_102
*222 FE_PHN47_B_34
*223 FE_PHN46_B_54
*224 FE_PHN45_B_36
*225 FE_PHN44_B_43
*226 FE_PHN43_B_58
*227 FE_PHN42_B_60
*228 FE_PHN41_B_107
*229 FE_PHN40_B_109
*230 FE_PHN39_B_115
*231 FE_PHN38_B_116
*232 FE_PHN37_B_117
*233 FE_PHN36_B_124
*234 FE_PHN35_B_125
*235 FE_PHN34_A_19
*236 FE_PHN33_A_36
*237 FE_PHN32_A_37
*238 FE_PHN31_A_40
*239 FE_PHN30_A_85
*240 FE_PHN29_A_86
*241 FE_PHN28_A_87
*242 FE_PHN27_B_35
*243 FE_PHN26_B_44
*244 FE_PHN25_B_47
*245 FE_PHN24_B_50
*246 FE_PHN23_B_52
*247 FE_PHN22_B_53
*248 FE_PHN21_B_42
*249 FE_PHN20_B_59
*250 FE_PHN19_B_108
*251 FE_PHN18_B_110
*252 FE_PHN17_B_111
*253 FE_PHN16_B_118
*254 FE_PHN15_B_119
*255 FE_PHN14_B_122
*256 FE_PHN13_B_123
*257 FE_PHN12_A_39
*258 FE_PHN11_B_45
*259 FE_PHN10_B_46
*260 FE_PHN9_B_48
*261 FE_PHN8_B_49
*262 FE_PHN7_B_51
*263 FE_PHN6_B_120
*264 FE_PHN5_B_121
*265 FE_OFN4_n386
*266 FE_OFN3_n386
*267 FE_OFN2_n386
*268 FE_OFN1_n386
*269 FE_OFN0_n386
*270 A[127]
*271 A[126]
*272 A[125]
*273 A[124]
*274 A[123]
*275 A[122]
*276 A[121]
*277 A[120]
*278 A[119]
*279 A[118]
*280 A[117]
*281 A[116]
*282 A[115]
*283 A[114]
*284 A[113]
*285 A[112]
*286 A[111]
*287 A[110]
*288 A[109]
*289 A[108]
*290 A[107]
*291 A[106]
*292 A[105]
*293 A[104]
*294 A[103]
*295 A[102]
*296 A[101]
*297 A[100]
*298 A[99]
*299 A[98]
*300 A[97]
*301 A[96]
*302 A[95]
*303 A[94]
*304 A[93]
*305 A[92]
*306 A[91]
*307 A[90]
*308 A[89]
*309 A[88]
*310 A[87]
*311 A[86]
*312 A[85]
*313 A[84]
*314 A[83]
*315 A[82]
*316 A[81]
*317 A[80]
*318 A[79]
*319 A[78]
*320 A[77]
*321 A[76]
*322 A[75]
*323 A[74]
*324 A[73]
*325 A[72]
*326 A[71]
*327 A[70]
*328 A[69]
*329 A[68]
*330 A[67]
*331 A[66]
*332 A[65]
*333 A[64]
*334 A[63]
*335 A[62]
*336 A[61]
*337 A[60]
*338 A[59]
*339 A[58]
*340 A[57]
*341 A[56]
*342 A[55]
*343 A[54]
*344 A[53]
*345 A[52]
*346 A[51]
*347 A[50]
*348 A[49]
*349 A[48]
*350 A[47]
*351 A[46]
*352 A[45]
*353 A[44]
*354 A[43]
*355 A[42]
*356 A[41]
*357 A[40]
*358 A[39]
*359 A[38]
*360 A[37]
*361 A[36]
*362 A[35]
*363 A[34]
*364 A[33]
*365 A[32]
*366 A[31]
*367 A[30]
*368 A[29]
*369 A[28]
*370 A[27]
*371 A[26]
*372 A[25]
*373 A[24]
*374 A[23]
*375 A[22]
*376 A[21]
*377 A[20]
*378 A[19]
*379 A[18]
*380 A[17]
*381 A[16]
*382 A[15]
*383 A[14]
*384 A[13]
*385 A[12]
*386 A[11]
*387 A[10]
*388 A[9]
*389 A[8]
*390 A[7]
*391 A[6]
*392 A[5]
*393 A[4]
*394 A[3]
*395 A[2]
*396 A[1]
*397 A[0]
*398 B[127]
*399 B[126]
*400 B[125]
*401 B[124]
*402 B[123]
*403 B[122]
*404 B[121]
*405 B[120]
*406 B[119]
*407 B[118]
*408 B[117]
*409 B[116]
*410 B[115]
*411 B[114]
*412 B[113]
*413 B[112]
*414 B[111]
*415 B[110]
*416 B[109]
*417 B[108]
*418 B[107]
*419 B[106]
*420 B[105]
*421 B[104]
*422 B[103]
*423 B[102]
*424 B[101]
*425 B[100]
*426 B[99]
*427 B[98]
*428 B[97]
*429 B[96]
*430 B[95]
*431 B[94]
*432 B[93]
*433 B[92]
*434 B[91]
*435 B[90]
*436 B[89]
*437 B[88]
*438 B[87]
*439 B[86]
*440 B[85]
*441 B[84]
*442 B[83]
*443 B[82]
*444 B[81]
*445 B[80]
*446 B[79]
*447 B[78]
*448 B[77]
*449 B[76]
*450 B[75]
*451 B[74]
*452 B[73]
*453 B[72]
*454 B[71]
*455 B[70]
*456 B[69]
*457 B[68]
*458 B[67]
*459 B[66]
*460 B[65]
*461 B[64]
*462 B[63]
*463 B[62]
*464 B[61]
*465 B[60]
*466 B[59]
*467 B[58]
*468 B[57]
*469 B[56]
*470 B[55]
*471 B[54]
*472 B[53]
*473 B[52]
*474 B[51]
*475 B[50]
*476 B[49]
*477 B[48]
*478 B[47]
*479 B[46]
*480 B[45]
*481 B[44]
*482 B[43]
*483 B[42]
*484 B[41]
*485 B[40]
*486 B[39]
*487 B[38]
*488 B[37]
*489 B[36]
*490 B[35]
*491 B[34]
*492 B[33]
*493 B[32]
*494 B[31]
*495 B[30]
*496 B[29]
*497 B[28]
*498 B[27]
*499 B[26]
*500 B[25]
*501 B[24]
*502 B[23]
*503 B[22]
*504 B[21]
*505 B[20]
*506 B[19]
*507 B[18]
*508 B[17]
*509 B[16]
*510 B[15]
*511 B[14]
*512 B[13]
*513 B[12]
*514 B[11]
*515 B[10]
*516 B[9]
*517 B[8]
*518 B[7]
*519 B[6]
*520 B[5]
*521 B[4]
*522 B[3]
*523 B[2]
*524 B[1]
*525 B[0]
*526 Ci
*527 CLK
*528 RST
*529 S[127]
*530 S[126]
*531 S[125]
*532 S[124]
*533 S[123]
*534 S[122]
*535 S[121]
*536 S[120]
*537 S[119]
*538 S[118]
*539 S[117]
*540 S[116]
*541 S[115]
*542 S[114]
*543 S[113]
*544 S[112]
*545 S[111]
*546 S[110]
*547 S[109]
*548 S[108]
*549 S[107]
*550 S[106]
*551 S[105]
*552 S[104]
*553 S[103]
*554 S[102]
*555 S[101]
*556 S[100]
*557 S[99]
*558 S[98]
*559 S[97]
*560 S[96]
*561 S[95]
*562 S[94]
*563 S[93]
*564 S[92]
*565 S[91]
*566 S[90]
*567 S[89]
*568 S[88]
*569 S[87]
*570 S[86]
*571 S[85]
*572 S[84]
*573 S[83]
*574 S[82]
*575 S[81]
*576 S[80]
*577 S[79]
*578 S[78]
*579 S[77]
*580 S[76]
*581 S[75]
*582 S[74]
*583 S[73]
*584 S[72]
*585 S[71]
*586 S[70]
*587 S[69]
*588 S[68]
*589 S[67]
*590 S[66]
*591 S[65]
*592 S[64]
*593 S[63]
*594 S[62]
*595 S[61]
*596 S[60]
*597 S[59]
*598 S[58]
*599 S[57]
*600 S[56]
*601 S[55]
*602 S[54]
*603 S[53]
*604 S[52]
*605 S[51]
*606 S[50]
*607 S[49]
*608 S[48]
*609 S[47]
*610 S[46]
*611 S[45]
*612 S[44]
*613 S[43]
*614 S[42]
*615 S[41]
*616 S[40]
*617 S[39]
*618 S[38]
*619 S[37]
*620 S[36]
*621 S[35]
*622 S[34]
*623 S[33]
*624 S[32]
*625 S[31]
*626 S[30]
*627 S[29]
*628 S[28]
*629 S[27]
*630 S[26]
*631 S[25]
*632 S[24]
*633 S[23]
*634 S[22]
*635 S[21]
*636 S[20]
*637 S[19]
*638 S[18]
*639 S[17]
*640 S[16]
*641 S[15]
*642 S[14]
*643 S[13]
*644 S[12]
*645 S[11]
*646 S[10]
*647 S[9]
*648 S[8]
*649 S[7]
*650 S[6]
*651 S[5]
*652 S[4]
*653 S[3]
*654 S[2]
*655 S[1]
*656 S[0]
*657 Co
*658 CITMP
*659 COTMP
*660 n386
*661 ATMP[127]
*662 ATMP[126]
*663 ATMP[125]
*664 ATMP[124]
*665 ATMP[123]
*666 ATMP[122]
*667 ATMP[121]
*668 ATMP[120]
*669 ATMP[119]
*670 ATMP[118]
*671 ATMP[117]
*672 ATMP[116]
*673 ATMP[115]
*674 ATMP[114]
*675 ATMP[113]
*676 ATMP[112]
*677 ATMP[111]
*678 ATMP[110]
*679 ATMP[109]
*680 ATMP[108]
*681 ATMP[107]
*682 ATMP[106]
*683 ATMP[105]
*684 ATMP[104]
*685 ATMP[103]
*686 ATMP[102]
*687 ATMP[101]
*688 ATMP[100]
*689 ATMP[99]
*690 ATMP[98]
*691 ATMP[97]
*692 ATMP[96]
*693 ATMP[95]
*694 ATMP[94]
*695 ATMP[93]
*696 ATMP[92]
*697 ATMP[91]
*698 ATMP[90]
*699 ATMP[89]
*700 ATMP[88]
*701 ATMP[87]
*702 ATMP[86]
*703 ATMP[85]
*704 ATMP[84]
*705 ATMP[83]
*706 ATMP[82]
*707 ATMP[81]
*708 ATMP[80]
*709 ATMP[79]
*710 ATMP[78]
*711 ATMP[77]
*712 ATMP[76]
*713 ATMP[75]
*714 ATMP[74]
*715 ATMP[73]
*716 ATMP[72]
*717 ATMP[71]
*718 ATMP[70]
*719 ATMP[69]
*720 ATMP[68]
*721 ATMP[67]
*722 ATMP[66]
*723 ATMP[65]
*724 ATMP[64]
*725 ATMP[63]
*726 ATMP[62]
*727 ATMP[61]
*728 ATMP[60]
*729 ATMP[59]
*730 ATMP[58]
*731 ATMP[57]
*732 ATMP[56]
*733 ATMP[55]
*734 ATMP[54]
*735 ATMP[53]
*736 ATMP[52]
*737 ATMP[51]
*738 ATMP[50]
*739 ATMP[49]
*740 ATMP[48]
*741 ATMP[47]
*742 ATMP[46]
*743 ATMP[45]
*744 ATMP[44]
*745 ATMP[43]
*746 ATMP[42]
*747 ATMP[41]
*748 ATMP[40]
*749 ATMP[39]
*750 ATMP[38]
*751 ATMP[37]
*752 ATMP[36]
*753 ATMP[35]
*754 ATMP[34]
*755 ATMP[33]
*756 ATMP[32]
*757 ATMP[31]
*758 ATMP[30]
*759 ATMP[29]
*760 ATMP[28]
*761 ATMP[27]
*762 ATMP[26]
*763 ATMP[25]
*764 ATMP[24]
*765 ATMP[23]
*766 ATMP[22]
*767 ATMP[21]
*768 ATMP[20]
*769 ATMP[19]
*770 ATMP[18]
*771 ATMP[17]
*772 ATMP[16]
*773 ATMP[15]
*774 ATMP[14]
*775 ATMP[13]
*776 ATMP[12]
*777 ATMP[11]
*778 ATMP[10]
*779 ATMP[9]
*780 ATMP[8]
*781 ATMP[7]
*782 ATMP[6]
*783 ATMP[5]
*784 ATMP[4]
*785 ATMP[3]
*786 ATMP[2]
*787 ATMP[1]
*788 ATMP[0]
*789 BTMP[127]
*790 BTMP[126]
*791 BTMP[125]
*792 BTMP[124]
*793 BTMP[123]
*794 BTMP[122]
*795 BTMP[121]
*796 BTMP[120]
*797 BTMP[119]
*798 BTMP[118]
*799 BTMP[117]
*800 BTMP[116]
*801 BTMP[115]
*802 BTMP[114]
*803 BTMP[113]
*804 BTMP[112]
*805 BTMP[111]
*806 BTMP[110]
*807 BTMP[109]
*808 BTMP[108]
*809 BTMP[107]
*810 BTMP[106]
*811 BTMP[105]
*812 BTMP[104]
*813 BTMP[103]
*814 BTMP[102]
*815 BTMP[101]
*816 BTMP[100]
*817 BTMP[99]
*818 BTMP[98]
*819 BTMP[97]
*820 BTMP[96]
*821 BTMP[95]
*822 BTMP[94]
*823 BTMP[93]
*824 BTMP[92]
*825 BTMP[91]
*826 BTMP[90]
*827 BTMP[89]
*828 BTMP[88]
*829 BTMP[87]
*830 BTMP[86]
*831 BTMP[85]
*832 BTMP[84]
*833 BTMP[83]
*834 BTMP[82]
*835 BTMP[81]
*836 BTMP[80]
*837 BTMP[79]
*838 BTMP[78]
*839 BTMP[77]
*840 BTMP[76]
*841 BTMP[75]
*842 BTMP[74]
*843 BTMP[73]
*844 BTMP[72]
*845 BTMP[71]
*846 BTMP[70]
*847 BTMP[69]
*848 BTMP[68]
*849 BTMP[67]
*850 BTMP[66]
*851 BTMP[65]
*852 BTMP[64]
*853 BTMP[63]
*854 BTMP[62]
*855 BTMP[61]
*856 BTMP[60]
*857 BTMP[59]
*858 BTMP[58]
*859 BTMP[57]
*860 BTMP[56]
*861 BTMP[55]
*862 BTMP[54]
*863 BTMP[53]
*864 BTMP[52]
*865 BTMP[51]
*866 BTMP[50]
*867 BTMP[49]
*868 BTMP[48]
*869 BTMP[47]
*870 BTMP[46]
*871 BTMP[45]
*872 BTMP[44]
*873 BTMP[43]
*874 BTMP[42]
*875 BTMP[41]
*876 BTMP[40]
*877 BTMP[39]
*878 BTMP[38]
*879 BTMP[37]
*880 BTMP[36]
*881 BTMP[35]
*882 BTMP[34]
*883 BTMP[33]
*884 BTMP[32]
*885 BTMP[31]
*886 BTMP[30]
*887 BTMP[29]
*888 BTMP[28]
*889 BTMP[27]
*890 BTMP[26]
*891 BTMP[25]
*892 BTMP[24]
*893 BTMP[23]
*894 BTMP[22]
*895 BTMP[21]
*896 BTMP[20]
*897 BTMP[19]
*898 BTMP[18]
*899 BTMP[17]
*900 BTMP[16]
*901 BTMP[15]
*902 BTMP[14]
*903 BTMP[13]
*904 BTMP[12]
*905 BTMP[11]
*906 BTMP[10]
*907 BTMP[9]
*908 BTMP[8]
*909 BTMP[7]
*910 BTMP[6]
*911 BTMP[5]
*912 BTMP[4]
*913 BTMP[3]
*914 BTMP[2]
*915 BTMP[1]
*916 BTMP[0]
*917 STMP[127]
*918 STMP[126]
*919 STMP[125]
*920 STMP[124]
*921 STMP[123]
*922 STMP[122]
*923 STMP[121]
*924 STMP[120]
*925 STMP[119]
*926 STMP[118]
*927 STMP[117]
*928 STMP[116]
*929 STMP[115]
*930 STMP[114]
*931 STMP[113]
*932 STMP[112]
*933 STMP[111]
*934 STMP[110]
*935 STMP[109]
*936 STMP[108]
*937 STMP[107]
*938 STMP[106]
*939 STMP[105]
*940 STMP[104]
*941 STMP[103]
*942 STMP[102]
*943 STMP[101]
*944 STMP[100]
*945 STMP[99]
*946 STMP[98]
*947 STMP[97]
*948 STMP[96]
*949 STMP[95]
*950 STMP[94]
*951 STMP[93]
*952 STMP[92]
*953 STMP[91]
*954 STMP[90]
*955 STMP[89]
*956 STMP[88]
*957 STMP[87]
*958 STMP[86]
*959 STMP[85]
*960 STMP[84]
*961 STMP[83]
*962 STMP[82]
*963 STMP[81]
*964 STMP[80]
*965 STMP[79]
*966 STMP[78]
*967 STMP[77]
*968 STMP[76]
*969 STMP[75]
*970 STMP[74]
*971 STMP[73]
*972 STMP[72]
*973 STMP[71]
*974 STMP[70]
*975 STMP[69]
*976 STMP[68]
*977 STMP[67]
*978 STMP[66]
*979 STMP[65]
*980 STMP[64]
*981 STMP[63]
*982 STMP[62]
*983 STMP[61]
*984 STMP[60]
*985 STMP[59]
*986 STMP[58]
*987 STMP[57]
*988 STMP[56]
*989 STMP[55]
*990 STMP[54]
*991 STMP[53]
*992 STMP[52]
*993 STMP[51]
*994 STMP[50]
*995 STMP[49]
*996 STMP[48]
*997 STMP[47]
*998 STMP[46]
*999 STMP[45]
*1000 STMP[44]
*1001 STMP[43]
*1002 STMP[42]
*1003 STMP[41]
*1004 STMP[40]
*1005 STMP[39]
*1006 STMP[38]
*1007 STMP[37]
*1008 STMP[36]
*1009 STMP[35]
*1010 STMP[34]
*1011 STMP[33]
*1012 STMP[32]
*1013 STMP[31]
*1014 STMP[30]
*1015 STMP[29]
*1016 STMP[28]
*1017 STMP[27]
*1018 STMP[26]
*1019 STMP[25]
*1020 STMP[24]
*1021 STMP[23]
*1022 STMP[22]
*1023 STMP[21]
*1024 STMP[20]
*1025 STMP[19]
*1026 STMP[18]
*1027 STMP[17]
*1028 STMP[16]
*1029 STMP[15]
*1030 STMP[14]
*1031 STMP[13]
*1032 STMP[12]
*1033 STMP[11]
*1034 STMP[10]
*1035 STMP[9]
*1036 STMP[8]
*1037 STMP[7]
*1038 STMP[6]
*1039 STMP[5]
*1040 STMP[4]
*1041 STMP[3]
*1042 STMP[2]
*1043 STMP[1]
*1044 STMP[0]
*1045 maprca/CTMP[127]
*1046 maprca/CTMP[126]
*1047 maprca/CTMP[125]
*1048 maprca/CTMP[124]
*1049 maprca/CTMP[123]
*1050 maprca/CTMP[122]
*1051 maprca/CTMP[121]
*1052 maprca/CTMP[120]
*1053 maprca/CTMP[119]
*1054 maprca/CTMP[118]
*1055 maprca/CTMP[117]
*1056 maprca/CTMP[116]
*1057 maprca/CTMP[115]
*1058 maprca/CTMP[114]
*1059 maprca/CTMP[113]
*1060 maprca/CTMP[112]
*1061 maprca/CTMP[111]
*1062 maprca/CTMP[110]
*1063 maprca/CTMP[109]
*1064 maprca/CTMP[108]
*1065 maprca/CTMP[107]
*1066 maprca/CTMP[106]
*1067 maprca/CTMP[105]
*1068 maprca/CTMP[104]
*1069 maprca/CTMP[103]
*1070 maprca/CTMP[102]
*1071 maprca/CTMP[101]
*1072 maprca/CTMP[100]
*1073 maprca/CTMP[99]
*1074 maprca/CTMP[98]
*1075 maprca/CTMP[97]
*1076 maprca/CTMP[96]
*1077 maprca/CTMP[95]
*1078 maprca/CTMP[94]
*1079 maprca/CTMP[93]
*1080 maprca/CTMP[92]
*1081 maprca/CTMP[91]
*1082 maprca/CTMP[90]
*1083 maprca/CTMP[89]
*1084 maprca/CTMP[88]
*1085 maprca/CTMP[87]
*1086 maprca/CTMP[86]
*1087 maprca/CTMP[85]
*1088 maprca/CTMP[84]
*1089 maprca/CTMP[83]
*1090 maprca/CTMP[82]
*1091 maprca/CTMP[81]
*1092 maprca/CTMP[80]
*1093 maprca/CTMP[79]
*1094 maprca/CTMP[78]
*1095 maprca/CTMP[77]
*1096 maprca/CTMP[76]
*1097 maprca/CTMP[75]
*1098 maprca/CTMP[74]
*1099 maprca/CTMP[73]
*1100 maprca/CTMP[72]
*1101 maprca/CTMP[71]
*1102 maprca/CTMP[70]
*1103 maprca/CTMP[69]
*1104 maprca/CTMP[68]
*1105 maprca/CTMP[67]
*1106 maprca/CTMP[66]
*1107 maprca/CTMP[65]
*1108 maprca/CTMP[64]
*1109 maprca/CTMP[63]
*1110 maprca/CTMP[62]
*1111 maprca/CTMP[61]
*1112 maprca/CTMP[60]
*1113 maprca/CTMP[59]
*1114 maprca/CTMP[58]
*1115 maprca/CTMP[57]
*1116 maprca/CTMP[56]
*1117 maprca/CTMP[55]
*1118 maprca/CTMP[54]
*1119 maprca/CTMP[53]
*1120 maprca/CTMP[52]
*1121 maprca/CTMP[51]
*1122 maprca/CTMP[50]
*1123 maprca/CTMP[49]
*1124 maprca/CTMP[48]
*1125 maprca/CTMP[47]
*1126 maprca/CTMP[46]
*1127 maprca/CTMP[45]
*1128 maprca/CTMP[44]
*1129 maprca/CTMP[43]
*1130 maprca/CTMP[42]
*1131 maprca/CTMP[41]
*1132 maprca/CTMP[40]
*1133 maprca/CTMP[39]
*1134 maprca/CTMP[38]
*1135 maprca/CTMP[37]
*1136 maprca/CTMP[36]
*1137 maprca/CTMP[35]
*1138 maprca/CTMP[34]
*1139 maprca/CTMP[33]
*1140 maprca/CTMP[32]
*1141 maprca/CTMP[31]
*1142 maprca/CTMP[30]
*1143 maprca/CTMP[29]
*1144 maprca/CTMP[28]
*1145 maprca/CTMP[27]
*1146 maprca/CTMP[26]
*1147 maprca/CTMP[25]
*1148 maprca/CTMP[24]
*1149 maprca/CTMP[23]
*1150 maprca/CTMP[22]
*1151 maprca/CTMP[21]
*1152 maprca/CTMP[20]
*1153 maprca/CTMP[19]
*1154 maprca/CTMP[18]
*1155 maprca/CTMP[17]
*1156 maprca/CTMP[16]
*1157 maprca/CTMP[15]
*1158 maprca/CTMP[14]
*1159 maprca/CTMP[13]
*1160 maprca/CTMP[12]
*1161 maprca/CTMP[11]
*1162 maprca/CTMP[10]
*1163 maprca/CTMP[9]
*1164 maprca/CTMP[8]
*1165 maprca/CTMP[7]
*1166 maprca/CTMP[6]
*1167 maprca/CTMP[5]
*1168 maprca/CTMP[4]
*1169 maprca/CTMP[3]
*1170 maprca/CTMP[2]
*1171 maprca/CTMP[1]
*1172 maprca/FAI_1/n1
*1173 maprca/FAI_1/n2
*1174 maprca/FAI_1/n3
*1175 maprca/FAI_2/n1
*1176 maprca/FAI_2/n2
*1177 maprca/FAI_2/n3
*1178 maprca/FAI_2/n4
*1179 maprca/FAI_3/n1
*1180 maprca/FAI_3/n2
*1181 maprca/FAI_3/n3
*1182 maprca/FAI_3/n4
*1183 maprca/FAI_4/n1
*1184 maprca/FAI_4/n2
*1185 maprca/FAI_4/n3
*1186 maprca/FAI_4/n4
*1187 maprca/FAI_5/n1
*1188 maprca/FAI_5/n2
*1189 maprca/FAI_5/n3
*1190 maprca/FAI_5/n4
*1191 maprca/FAI_6/n1
*1192 maprca/FAI_6/n2
*1193 maprca/FAI_6/n3
*1194 maprca/FAI_6/n4
*1195 maprca/FAI_7/n1
*1196 maprca/FAI_7/n2
*1197 maprca/FAI_7/n3
*1198 maprca/FAI_7/n4
*1199 maprca/FAI_8/n1
*1200 maprca/FAI_8/n2
*1201 maprca/FAI_8/n3
*1202 maprca/FAI_8/n4
*1203 maprca/FAI_9/n1
*1204 maprca/FAI_9/n2
*1205 maprca/FAI_9/n3
*1206 maprca/FAI_9/n4
*1207 maprca/FAI_10/n1
*1208 maprca/FAI_10/n2
*1209 maprca/FAI_10/n3
*1210 maprca/FAI_10/n4
*1211 maprca/FAI_11/n1
*1212 maprca/FAI_11/n2
*1213 maprca/FAI_11/n3
*1214 maprca/FAI_11/n4
*1215 maprca/FAI_12/n1
*1216 maprca/FAI_12/n2
*1217 maprca/FAI_12/n3
*1218 maprca/FAI_12/n4
*1219 maprca/FAI_13/n1
*1220 maprca/FAI_13/n2
*1221 maprca/FAI_13/n3
*1222 maprca/FAI_13/n4
*1223 maprca/FAI_14/n1
*1224 maprca/FAI_14/n2
*1225 maprca/FAI_14/n3
*1226 maprca/FAI_14/n4
*1227 maprca/FAI_15/n1
*1228 maprca/FAI_15/n2
*1229 maprca/FAI_15/n3
*1230 maprca/FAI_15/n4
*1231 maprca/FAI_16/n1
*1232 maprca/FAI_16/n2
*1233 maprca/FAI_16/n3
*1234 maprca/FAI_16/n4
*1235 maprca/FAI_17/n1
*1236 maprca/FAI_17/n2
*1237 maprca/FAI_17/n3
*1238 maprca/FAI_17/n4
*1239 maprca/FAI_18/n1
*1240 maprca/FAI_18/n2
*1241 maprca/FAI_18/n3
*1242 maprca/FAI_18/n4
*1243 maprca/FAI_19/n1
*1244 maprca/FAI_19/n2
*1245 maprca/FAI_19/n3
*1246 maprca/FAI_19/n4
*1247 maprca/FAI_20/n1
*1248 maprca/FAI_20/n2
*1249 maprca/FAI_20/n3
*1250 maprca/FAI_20/n4
*1251 maprca/FAI_21/n1
*1252 maprca/FAI_21/n2
*1253 maprca/FAI_21/n3
*1254 maprca/FAI_21/n4
*1255 maprca/FAI_22/n1
*1256 maprca/FAI_22/n2
*1257 maprca/FAI_22/n3
*1258 maprca/FAI_22/n4
*1259 maprca/FAI_23/n1
*1260 maprca/FAI_23/n2
*1261 maprca/FAI_23/n3
*1262 maprca/FAI_23/n4
*1263 maprca/FAI_24/n1
*1264 maprca/FAI_24/n2
*1265 maprca/FAI_24/n3
*1266 maprca/FAI_24/n4
*1267 maprca/FAI_25/n1
*1268 maprca/FAI_25/n2
*1269 maprca/FAI_25/n3
*1270 maprca/FAI_26/n1
*1271 maprca/FAI_26/n2
*1272 maprca/FAI_26/n3
*1273 maprca/FAI_27/n1
*1274 maprca/FAI_27/n2
*1275 maprca/FAI_27/n3
*1276 maprca/FAI_28/n1
*1277 maprca/FAI_28/n2
*1278 maprca/FAI_28/n3
*1279 maprca/FAI_29/n1
*1280 maprca/FAI_29/n2
*1281 maprca/FAI_29/n3
*1282 maprca/FAI_30/n1
*1283 maprca/FAI_30/n2
*1284 maprca/FAI_30/n3
*1285 maprca/FAI_31/n1
*1286 maprca/FAI_31/n2
*1287 maprca/FAI_31/n3
*1288 maprca/FAI_32/n1
*1289 maprca/FAI_32/n2
*1290 maprca/FAI_32/n3
*1291 maprca/FAI_33/n1
*1292 maprca/FAI_33/n2
*1293 maprca/FAI_33/n3
*1294 maprca/FAI_34/n1
*1295 maprca/FAI_34/n2
*1296 maprca/FAI_34/n3
*1297 maprca/FAI_35/n1
*1298 maprca/FAI_35/n2
*1299 maprca/FAI_35/n3
*1300 maprca/FAI_36/n1
*1301 maprca/FAI_36/n2
*1302 maprca/FAI_36/n3
*1303 maprca/FAI_37/n1
*1304 maprca/FAI_37/n2
*1305 maprca/FAI_37/n3
*1306 maprca/FAI_38/n1
*1307 maprca/FAI_38/n2
*1308 maprca/FAI_38/n3
*1309 maprca/FAI_39/n1
*1310 maprca/FAI_39/n2
*1311 maprca/FAI_39/n3
*1312 maprca/FAI_40/n1
*1313 maprca/FAI_40/n2
*1314 maprca/FAI_40/n3
*1315 maprca/FAI_41/n1
*1316 maprca/FAI_41/n2
*1317 maprca/FAI_41/n3
*1318 maprca/FAI_42/n1
*1319 maprca/FAI_42/n2
*1320 maprca/FAI_42/n3
*1321 maprca/FAI_43/n1
*1322 maprca/FAI_43/n2
*1323 maprca/FAI_43/n3
*1324 maprca/FAI_44/n1
*1325 maprca/FAI_44/n2
*1326 maprca/FAI_44/n3
*1327 maprca/FAI_45/n1
*1328 maprca/FAI_45/n2
*1329 maprca/FAI_45/n3
*1330 maprca/FAI_46/n1
*1331 maprca/FAI_46/n2
*1332 maprca/FAI_46/n3
*1333 maprca/FAI_47/n1
*1334 maprca/FAI_47/n2
*1335 maprca/FAI_47/n3
*1336 maprca/FAI_48/n1
*1337 maprca/FAI_48/n2
*1338 maprca/FAI_48/n3
*1339 maprca/FAI_49/n1
*1340 maprca/FAI_49/n2
*1341 maprca/FAI_49/n3
*1342 maprca/FAI_50/n1
*1343 maprca/FAI_50/n2
*1344 maprca/FAI_50/n3
*1345 maprca/FAI_51/n1
*1346 maprca/FAI_51/n2
*1347 maprca/FAI_51/n3
*1348 maprca/FAI_52/n1
*1349 maprca/FAI_52/n2
*1350 maprca/FAI_52/n3
*1351 maprca/FAI_53/n1
*1352 maprca/FAI_53/n2
*1353 maprca/FAI_53/n3
*1354 maprca/FAI_54/n1
*1355 maprca/FAI_54/n2
*1356 maprca/FAI_54/n3
*1357 maprca/FAI_55/n1
*1358 maprca/FAI_55/n2
*1359 maprca/FAI_55/n3
*1360 maprca/FAI_56/n1
*1361 maprca/FAI_56/n2
*1362 maprca/FAI_56/n3
*1363 maprca/FAI_57/n1
*1364 maprca/FAI_57/n2
*1365 maprca/FAI_57/n3
*1366 maprca/FAI_58/n1
*1367 maprca/FAI_58/n2
*1368 maprca/FAI_58/n3
*1369 maprca/FAI_59/n1
*1370 maprca/FAI_59/n2
*1371 maprca/FAI_59/n3
*1372 maprca/FAI_60/n1
*1373 maprca/FAI_60/n2
*1374 maprca/FAI_60/n3
*1375 maprca/FAI_61/n1
*1376 maprca/FAI_61/n2
*1377 maprca/FAI_61/n3
*1378 maprca/FAI_62/n1
*1379 maprca/FAI_62/n2
*1380 maprca/FAI_62/n3
*1381 maprca/FAI_63/n1
*1382 maprca/FAI_63/n2
*1383 maprca/FAI_63/n3
*1384 maprca/FAI_64/n1
*1385 maprca/FAI_64/n2
*1386 maprca/FAI_64/n3
*1387 maprca/FAI_65/n1
*1388 maprca/FAI_65/n2
*1389 maprca/FAI_65/n3
*1390 maprca/FAI_66/n1
*1391 maprca/FAI_66/n2
*1392 maprca/FAI_66/n3
*1393 maprca/FAI_67/n1
*1394 maprca/FAI_67/n2
*1395 maprca/FAI_67/n3
*1396 maprca/FAI_68/n1
*1397 maprca/FAI_68/n2
*1398 maprca/FAI_68/n3
*1399 maprca/FAI_69/n1
*1400 maprca/FAI_69/n2
*1401 maprca/FAI_69/n3
*1402 maprca/FAI_70/n1
*1403 maprca/FAI_70/n2
*1404 maprca/FAI_70/n3
*1405 maprca/FAI_71/n1
*1406 maprca/FAI_71/n2
*1407 maprca/FAI_71/n3
*1408 maprca/FAI_72/n1
*1409 maprca/FAI_72/n2
*1410 maprca/FAI_72/n3
*1411 maprca/FAI_73/n1
*1412 maprca/FAI_73/n2
*1413 maprca/FAI_73/n3
*1414 maprca/FAI_74/n1
*1415 maprca/FAI_74/n2
*1416 maprca/FAI_74/n3
*1417 maprca/FAI_75/n1
*1418 maprca/FAI_75/n2
*1419 maprca/FAI_75/n3
*1420 maprca/FAI_76/n1
*1421 maprca/FAI_76/n2
*1422 maprca/FAI_76/n3
*1423 maprca/FAI_77/n1
*1424 maprca/FAI_77/n2
*1425 maprca/FAI_77/n3
*1426 maprca/FAI_78/n1
*1427 maprca/FAI_78/n2
*1428 maprca/FAI_78/n3
*1429 maprca/FAI_79/n1
*1430 maprca/FAI_79/n2
*1431 maprca/FAI_79/n3
*1432 maprca/FAI_80/n1
*1433 maprca/FAI_80/n2
*1434 maprca/FAI_80/n3
*1435 maprca/FAI_81/n1
*1436 maprca/FAI_81/n2
*1437 maprca/FAI_81/n3
*1438 maprca/FAI_82/n1
*1439 maprca/FAI_82/n2
*1440 maprca/FAI_82/n3
*1441 maprca/FAI_83/n1
*1442 maprca/FAI_83/n2
*1443 maprca/FAI_83/n3
*1444 maprca/FAI_84/n1
*1445 maprca/FAI_84/n2
*1446 maprca/FAI_84/n3
*1447 maprca/FAI_85/n1
*1448 maprca/FAI_85/n2
*1449 maprca/FAI_85/n3
*1450 maprca/FAI_86/n1
*1451 maprca/FAI_86/n2
*1452 maprca/FAI_86/n3
*1453 maprca/FAI_87/n1
*1454 maprca/FAI_87/n2
*1455 maprca/FAI_87/n3
*1456 maprca/FAI_88/n1
*1457 maprca/FAI_88/n2
*1458 maprca/FAI_88/n3
*1459 maprca/FAI_89/n1
*1460 maprca/FAI_89/n2
*1461 maprca/FAI_89/n3
*1462 maprca/FAI_90/n1
*1463 maprca/FAI_90/n2
*1464 maprca/FAI_90/n3
*1465 maprca/FAI_91/n1
*1466 maprca/FAI_91/n2
*1467 maprca/FAI_91/n3
*1468 maprca/FAI_92/n1
*1469 maprca/FAI_92/n2
*1470 maprca/FAI_92/n3
*1471 maprca/FAI_93/n1
*1472 maprca/FAI_93/n2
*1473 maprca/FAI_93/n3
*1474 maprca/FAI_94/n1
*1475 maprca/FAI_94/n2
*1476 maprca/FAI_94/n3
*1477 maprca/FAI_95/n1
*1478 maprca/FAI_95/n2
*1479 maprca/FAI_95/n3
*1480 maprca/FAI_96/n1
*1481 maprca/FAI_96/n2
*1482 maprca/FAI_96/n3
*1483 maprca/FAI_97/n1
*1484 maprca/FAI_97/n2
*1485 maprca/FAI_97/n3
*1486 maprca/FAI_98/n1
*1487 maprca/FAI_98/n2
*1488 maprca/FAI_98/n3
*1489 maprca/FAI_99/n1
*1490 maprca/FAI_99/n2
*1491 maprca/FAI_99/n3
*1492 maprca/FAI_100/n1
*1493 maprca/FAI_100/n2
*1494 maprca/FAI_100/n3
*1495 maprca/FAI_101/n1
*1496 maprca/FAI_101/n2
*1497 maprca/FAI_101/n3
*1498 maprca/FAI_102/n1
*1499 maprca/FAI_102/n2
*1500 maprca/FAI_102/n3
*1501 maprca/FAI_103/n1
*1502 maprca/FAI_103/n2
*1503 maprca/FAI_103/n3
*1504 maprca/FAI_104/n1
*1505 maprca/FAI_104/n2
*1506 maprca/FAI_104/n3
*1507 maprca/FAI_105/n1
*1508 maprca/FAI_105/n2
*1509 maprca/FAI_105/n3
*1510 maprca/FAI_105/n4
*1511 maprca/FAI_106/n1
*1512 maprca/FAI_106/n2
*1513 maprca/FAI_106/n3
*1514 maprca/FAI_106/n4
*1515 maprca/FAI_107/n1
*1516 maprca/FAI_107/n2
*1517 maprca/FAI_107/n3
*1518 maprca/FAI_107/n4
*1519 maprca/FAI_108/n1
*1520 maprca/FAI_108/n2
*1521 maprca/FAI_108/n3
*1522 maprca/FAI_108/n4
*1523 maprca/FAI_109/n1
*1524 maprca/FAI_109/n2
*1525 maprca/FAI_109/n3
*1526 maprca/FAI_109/n4
*1527 maprca/FAI_110/n1
*1528 maprca/FAI_110/n2
*1529 maprca/FAI_110/n3
*1530 maprca/FAI_110/n4
*1531 maprca/FAI_111/n1
*1532 maprca/FAI_111/n2
*1533 maprca/FAI_111/n3
*1534 maprca/FAI_111/n4
*1535 maprca/FAI_112/n1
*1536 maprca/FAI_112/n2
*1537 maprca/FAI_112/n3
*1538 maprca/FAI_112/n4
*1539 maprca/FAI_113/n1
*1540 maprca/FAI_113/n2
*1541 maprca/FAI_113/n3
*1542 maprca/FAI_113/n4
*1543 maprca/FAI_114/n1
*1544 maprca/FAI_114/n2
*1545 maprca/FAI_114/n3
*1546 maprca/FAI_114/n4
*1547 maprca/FAI_115/n1
*1548 maprca/FAI_115/n2
*1549 maprca/FAI_115/n3
*1550 maprca/FAI_115/n4
*1551 maprca/FAI_116/n1
*1552 maprca/FAI_116/n2
*1553 maprca/FAI_116/n3
*1554 maprca/FAI_116/n4
*1555 maprca/FAI_117/n1
*1556 maprca/FAI_117/n2
*1557 maprca/FAI_117/n3
*1558 maprca/FAI_117/n4
*1559 maprca/FAI_118/n1
*1560 maprca/FAI_118/n2
*1561 maprca/FAI_118/n3
*1562 maprca/FAI_118/n4
*1563 maprca/FAI_119/n1
*1564 maprca/FAI_119/n2
*1565 maprca/FAI_119/n3
*1566 maprca/FAI_119/n4
*1567 maprca/FAI_120/n1
*1568 maprca/FAI_120/n2
*1569 maprca/FAI_120/n3
*1570 maprca/FAI_120/n4
*1571 maprca/FAI_121/n1
*1572 maprca/FAI_121/n2
*1573 maprca/FAI_121/n3
*1574 maprca/FAI_121/n4
*1575 maprca/FAI_122/n1
*1576 maprca/FAI_122/n2
*1577 maprca/FAI_122/n3
*1578 maprca/FAI_122/n4
*1579 maprca/FAI_123/n1
*1580 maprca/FAI_123/n2
*1581 maprca/FAI_123/n3
*1582 maprca/FAI_123/n4
*1583 maprca/FAI_124/n1
*1584 maprca/FAI_124/n2
*1585 maprca/FAI_124/n3
*1586 maprca/FAI_124/n4
*1587 maprca/FAI_125/n1
*1588 maprca/FAI_125/n2
*1589 maprca/FAI_125/n3
*1590 maprca/FAI_125/n4
*1591 maprca/FAI_126/n1
*1592 maprca/FAI_126/n2
*1593 maprca/FAI_126/n3
*1594 maprca/FAI_126/n4
*1595 maprca/FAI_127/n1
*1596 maprca/FAI_127/n2
*1597 maprca/FAI_127/n3
*1598 maprca/FAI_127/n4
*1599 maprca/FAI_128/n1
*1600 maprca/FAI_128/n2
*1601 maprca/FAI_128/n3
*1602 maprca/FAI_128/n4
*1603 FE_PHC268_RST
*1604 FE_PHC267_RST
*1605 FE_PHC266_RST
*1606 FE_PHC265_RST
*1607 FE_PHC264_RST
*1608 FE_PHC263_RST
*1609 FE_PHC262_B_13
*1610 FE_PHC261_RST
*1611 FE_PHC260_B_0
*1612 FE_PHC259_B_1
*1613 FE_PHC258_B_12
*1614 FE_PHC257_A_127
*1615 FE_PHC256_B_8
*1616 FE_PHC255_B_10
*1617 FE_PHC254_B_11
*1618 FE_PHC253_B_14
*1619 FE_PHC252_B_15
*1620 FE_PHC251_B_2
*1621 FE_PHC250_B_9
*1622 FE_PHC249_B_16
*1623 FE_PHC248_B_7
*1624 FE_PHC247_B_17
*1625 FE_PHC246_B_75
*1626 FE_PHC245_B_76
*1627 FE_PHC244_B_77
*1628 FE_PHC243_B_3
*1629 FE_PHC242_B_5
*1630 FE_PHC241_B_6
*1631 FE_PHC240_B_78
*1632 FE_PHC239_B_93
*1633 FE_PHC238_B_4
*1634 FE_PHC237_B_18
*1635 FE_PHC236_B_21
*1636 FE_PHC235_B_69
*1637 FE_PHC234_B_71
*1638 FE_PHC233_B_72
*1639 FE_PHC232_B_74
*1640 FE_PHC231_B_79
*1641 FE_PHC230_B_99
*1642 FE_PHC229_A_0
*1643 FE_PHC228_A_125
*1644 FE_PHC227_B_83
*1645 FE_PHC226_B_88
*1646 FE_PHC225_B_91
*1647 FE_PHC224_B_94
*1648 FE_PHC223_B_100
*1649 FE_PHC222_A_124
*1650 FE_PHC221_B_20
*1651 FE_PHC220_B_22
*1652 FE_PHC219_B_24
*1653 FE_PHC218_B_73
*1654 FE_PHC217_B_81
*1655 FE_PHC216_B_82
*1656 FE_PHC215_B_84
*1657 FE_PHC214_B_90
*1658 FE_PHC213_B_92
*1659 FE_PHC212_B_101
*1660 FE_PHC211_A_1
*1661 FE_PHC210_A_122
*1662 FE_PHC209_A_126
*1663 FE_PHC208_B_19
*1664 FE_PHC207_B_23
*1665 FE_PHC206_B_80
*1666 FE_PHC205_B_85
*1667 FE_PHC204_B_89
*1668 FE_PHC203_B_95
*1669 FE_PHC202_B_97
*1670 FE_PHC201_B_102
*1671 FE_PHC200_A_4
*1672 FE_PHC199_A_9
*1673 FE_PHC198_A_11
*1674 FE_PHC197_A_108
*1675 FE_PHC196_A_120
*1676 FE_PHC195_A_123
*1677 FE_PHC194_B_25
*1678 FE_PHC193_B_26
*1679 FE_PHC192_B_87
*1680 FE_PHC191_A_2
*1681 FE_PHC190_A_3
*1682 FE_PHC189_A_10
*1683 FE_PHC188_A_52
*1684 FE_PHC187_A_76
*1685 FE_PHC186_A_121
*1686 FE_PHC185_Ci
*1687 FE_PHC184_B_86
*1688 FE_PHC183_B_98
*1689 FE_PHC182_A_6